                                  MODFLOW-NWT-SWR1 
      U.S. GEOLOGICAL SURVEY MODULAR FINITE-DIFFERENCE GROUNDWATER-FLOW MODEL
                            VERSION 1.0.7 01/15/2013
                    BASED ON MODFLOW-2005 VERSION 1.9.01 05/01/2012

 LIST FILE: Results\SWRSample03.lst
                         UNIT    7

 OPENING SWRSample03.bas
 FILE TYPE:BAS6   UNIT    1   STATUS:OLD    
 FORMAT:FORMATTED              ACCESS:SEQUENTIAL          

 OPENING SWRSample03.dis
 FILE TYPE:DIS   UNIT   29   STATUS:OLD    
 FORMAT:FORMATTED              ACCESS:SEQUENTIAL          

 OPENING SWRSample03.lpf
 FILE TYPE:LPF   UNIT   11   STATUS:OLD    
 FORMAT:FORMATTED              ACCESS:SEQUENTIAL          

 OPENING SWRSample03.oc
 FILE TYPE:OC   UNIT   22   STATUS:OLD    
 FORMAT:FORMATTED              ACCESS:SEQUENTIAL          

 OPENING SWRSample03.pcg
 FILE TYPE:PCG   UNIT   19   STATUS:OLD    
 FORMAT:FORMATTED              ACCESS:SEQUENTIAL          

 OPENING SWRSample03.swr
 FILE TYPE:SWR   UNIT   61   STATUS:OLD    
 FORMAT:FORMATTED              ACCESS:SEQUENTIAL          

 OPENING Results\SWRSample03_Stage.stg
 FILE TYPE:DATA(BINARY)   UNIT  102   STATUS:UNKNOWN
 FORMAT:BINARY                 ACCESS:SEQUENTIAL          

 BAS -- BASIC PACKAGE, VERSION 7, 5/2/2005 INPUT READ FROM UNIT    1
 
 MODFLOW was compiled using mixed precision
 Precision of REAL variables:           6
 Precision of DOUBLE PRECISION variables:          15

 DISCRETIZATION INPUT DATA READ FROM UNIT   29
 # MODFLOW2000 Discretization File
    1 LAYERS        11 ROWS        11 COLUMNS
   25 STRESS PERIOD(S) IN SIMULATION
 MODEL TIME UNIT IS SECONDS
 MODEL LENGTH UNIT IS METERS
  Confining bed flag for each layer:
   0

                     DELR =   500.000    

                     DELC =   500.000    



           TOP ELEVATION OF LAYER 1
 READING ON UNIT   29 WITH FORMAT: (11e6.2)            

   MODEL LAYER BOTTOM EL. =  -5.00000     FOR LAYER   1


 STRESS PERIOD     LENGTH       TIME STEPS     MULTIPLIER FOR DELT    SS FLAG
 ----------------------------------------------------------------------------
        1         3600.000         30                    1.000         TR
        2         3600.000         30                    1.000         TR
        3         3600.000         30                    1.000         TR
        4         3600.000         30                    1.000         TR
        5         3600.000         30                    1.000         TR
        6         3600.000         30                    1.000         TR
        7         3600.000         30                    1.000         TR
        8         3600.000         30                    1.000         TR
        9         3600.000         30                    1.000         TR
       10         3600.000         30                    1.000         TR
       11         3600.000         30                    1.000         TR
       12         3600.000         30                    1.000         TR
       13         3600.000         30                    1.000         TR
       14         3600.000         30                    1.000         TR
       15         3600.000         30                    1.000         TR
       16         3600.000         30                    1.000         TR
       17         3600.000         30                    1.000         TR
       18         3600.000         30                    1.000         TR
       19         3600.000         30                    1.000         TR
       20         3600.000         30                    1.000         TR
       21         3600.000         30                    1.000         TR
       22         3600.000         30                    1.000         TR
       23         3600.000         30                    1.000         TR
       24         3600.000         30                    1.000         TR
       25         518400.0       4320                    1.000         TR

 TRANSIENT SIMULATION



 
 # MODFLOW2005 Basic Package                                                     
 #MODFLOW Data Set Created by Groundwater Vistas                                 
 #

           BOUNDARY ARRAY =              1 FOR LAYER   1

 AQUIFER HEAD WILL BE SET TO   999.00     AT ALL NO-FLOW NODES (IBOUND=0).

             INITIAL HEAD =   0.00000     FOR LAYER   1

 OUTPUT CONTROL IS SPECIFIED ONLY AT TIME STEPS FOR WHICH OUTPUT IS DESIRED
 HEAD PRINT FORMAT CODE IS   0    DRAWDOWN PRINT FORMAT CODE IS   0
 HEADS WILL BE SAVED ON UNIT    0    DRAWDOWNS WILL BE SAVED ON UNIT    0

 LPF -- LAYER-PROPERTY FLOW PACKAGE, VERSION 7, 5/2/2005
         INPUT READ FROM UNIT   11
 # MODFLOW2000 Layer Property Flow (LPF) Package
 HEAD AT CELLS THAT CONVERT TO DRY= -1.00000E+30
 No named parameters

   LAYER FLAGS:
 LAYER       LAYTYP        LAYAVG         CHANI        LAYVKA        LAYWET
 ---------------------------------------------------------------------------
    1             1             0     1.000E+00             0             0

   INTERPRETATION OF LAYER FLAGS:
                        INTERBLOCK     HORIZONTAL    DATA IN
         LAYER TYPE   TRANSMISSIVITY   ANISOTROPY   ARRAY VKA   WETTABILITY
 LAYER      (LAYTYP)      (LAYAVG)       (CHANI)      (LAYVKA)      (LAYWET)
 ---------------------------------------------------------------------------
    1   CONVERTIBLE      HARMONIC     1.000E+00    VERTICAL K  NON-WETTABLE

 WETTING CAPABILITY IS NOT ACTIVE IN ANY LAYER

    HYD. COND. ALONG ROWS =   5.00000     FOR LAYER   1

      VERTICAL HYD. COND. =   5.00000     FOR LAYER   1

         SPECIFIC STORAGE =   1.00000     FOR LAYER   1

           SPECIFIC YIELD =  0.200000     FOR LAYER   1

 PCG -- CONJUGATE-GRADIENT SOLUTION PACKAGE, VERSION 7, 5/2/2005
 MAXIMUM OF    100 CALLS OF SOLUTION ROUTINE
 MAXIMUM OF     25 INTERNAL ITERATIONS PER CALL TO SOLUTION ROUTINE
 MATRIX PRECONDITIONING TYPE :    1
 IHCOFADD option -- When an active cell is surrounded by dry cells, convert
 the cell to dry only if storage and head-dependent boundary flow are 0.



                                    SOLUTION BY THE CONJUGATE-GRADIENT METHOD
                                   -------------------------------------------
                    MAXIMUM NUMBER OF CALLS TO PCG ROUTINE =      100
                        MAXIMUM ITERATIONS PER CALL TO PCG =       25
                               MATRIX PRECONDITIONING TYPE =        1
        RELAXATION FACTOR (ONLY USED WITH PRECOND. TYPE 1) =    0.10000E+01
 PARAMETER OF POLYNOMIAL PRECOND. = 2 (2) OR IS CALCULATED :        2
                         HEAD CHANGE CRITERION FOR CLOSURE =    0.10000E-02
                     RESIDUAL CHANGE CRITERION FOR CLOSURE =    0.10000E+01
            PCG HEAD AND RESIDUAL CHANGE PRINTOUT INTERVAL =        5
     PRINTING FROM SOLVER IS LIMITED(1) OR SUPPRESSED (>1) =        0
                            STEADY-STATE DAMPING PARAMETER =    0.10000E+01
                               TRANSIENT DAMPING PARAMETER =    0.10000E+01

 SWR -- SURFACE-WATER ROUTING PACKAGE,
 $Id: gwf2swr7.f 1.02 2013-01-17 15:00:00Z jdhughes $            
 INPUT READ FROM UNIT   61

 ...READING SWR1 PROCESS DATASET 1A
 SWR1 OPTIONS SPECIFIED IN DATASET 1B

 ...READING SWR1 PROCESS DATASET 1B
 UNRECOGNIZED SWR1 OPTION: XRINT_SWR_TO_SCREEN
 UNRECOGNIZED SWR1 OPTION: XSE_NONCONVERGENCE_CONTINUE

 ...READING SWR1 PROCESS DATASET 2

 ...READING SWR1 PROCESS DATASET 3

 NUMBER OF REACHES                         =  121
 SURFACE WATER ONLY SIMULATION (>0=TRUE)   =    1
 LENGTH CONVERSION FACTOR                  =   1.000000    
 TIME CONVERSION FACTOR                    =   1.000000    
 MINIMUM GRADIENT FOR FLOW                 =   0.000000    
 MAXIMUM DEPTH FOR SCALING REACH OUTFLOW   =  0.1000000    
 MINIMUM DEPTH FOR REACH OUTFLOW           =  0.1000000E-01
 DIFFUSIVE-WAVE APPROX. SPATIAL WEIGHTING  = CENTRAL             
 DEPTH SCALING                             = SIGMOID             
 TWO-DIMENSIONAL COORD.-INVARIANT APPROACH = EXPLICIT            
 MINIMUM ROUTING TIME STEP LENGTH          =   120.0000    
 MAXIMUM ROUTING TIME STEP LENGTH          =   120.0000    
 INITIAL ROUTING TIME STEP LENGTH          =   120.0000    
 OUTPUT PRINT INCREMENT                    =   120.0000    
 ADAPTIVE TIME STEP INCREMENT (RTMULT)     =   1.000000    
 ADAPTIVE TIME STEP INCREMENT FREQUENCY    =    1
 MAXIMUM RAINFALL      PER ROUTING STEP    =   0.000000    
 MAXIMUM STAGE  CHANGE PER ROUTING STEP    =   0.000000    
 MAXIMUM INFLOW CHANGE PER ROUTING STEP    =   0.000000    

 CBC OUTPUT UNIT (ISWRCBC)                 =    0
 GROUP FLOW TERMS OUTPUT UNIT (ISWRPRGF)   =    0
 REACH STAGE OUTPUT UNIT (ISWRPSTG)        = -102
 REACH AQ-RCH FLOW OUTPUT UNIT (ISWRPQAQ)  =    0
 REACH LATERAL FLOW OUTPUT UNIT (ISWRPQM)  =    0
 STRUCTURE FLOW OUTPUT UNIT (ISWRPSTR)     =    0
 SUMMARY VELOCITY AND FROUDE INFORMATION   =    F


               --- SWR SOLVER PARAMETERS ---
 SOLVER = BICONJUGATE GRADIENT STABILIZED         
 PRECONDITIONER                            = MOD. INCOMPLETE LU  
 JACOBIAN SCALING                          = NO SCALING          
 MAXIMUM NUMBER OF OUTER ITERATIONS        =   51
 MAXIMUM NUMBER OF INNER ITERATIONS        =  100
 NON-CONVERGENCE CONT.OF SWR AND MODFLOW   =    F
 MAXIMUM STAGE    TOLERANCE (TOLS)         =  0.1000000E-08
 MAXIMUM ROOT     TOLERANCE (TOLR)         =  0.1000000E-01
 INEXACT NEWTON APPROACH (INEXCTNWT)       =    F
 MAXIMUM AQ-RCH FLOW TOLERANCE (TOLA)      =  0.0000000E+00
 STEADY-STATE DAMPENING PARAMETER (DAMPSS) =  0.1000000E+01
 TRANSIENT DAMPENING PARAMETER (DAMPTR)    =  0.1000000E+01
 PSEUDO-TRANSIENT CONTINUATION APPROACH    =    F
 SOLVER OUTPUT FREQUENCY (IPRSWR)          =  999
 CONVERGENCE PRINTING FLAG (MUTSWR)        =    3
   0 - MAXIMUM RESIDUAL EACH SWR TIMESTEP
   1 - TOTAL NUMBER OF ITERATIONS EACH SWR TIMESTEP
   2 - NO PRINTING
   3 - PRINTING IF CONVERGENCE FAILS
 BACKTRACKING ALLOWED                      =    T
 MAXIMUM BACKTRACKING ITERATIONS (IBT)     =   10
 BACKTRACKING OUTPUT FREQUENCY  (IBTPRT)   =    1


 SURFACE WATER ONLY SIMULATION
 SETTING MODFLOW IBOUND TO ZERO FOR ALL CELLS

 ...READING SWR1 PROCESS DATASET 4A

 ...READING SWR1 PROCESS DATASET 4B

 -----------------------------------------------------------
 FULL REACH CONNECTIVITY FOR EACH REACH

 -----------------------------------------------------------
 REACH  =     1
               -----------------CONNECTIONS-----------------
                            1              2
 -----------------------------------------------------------
 REACHES           1 TO     2     1 TO    12
 -----------------------------------------------------------

 -----------------------------------------------------------
 REACH  =     2
               -----------------CONNECTIONS-----------------
                            1              2              3
 -----------------------------------------------------------
 REACHES           2 TO     1     2 TO     3     2 TO    13
 -----------------------------------------------------------

 -----------------------------------------------------------
 REACH  =     3
               -----------------CONNECTIONS-----------------
                            1              2              3
 -----------------------------------------------------------
 REACHES           3 TO     2     3 TO     4     3 TO    14
 -----------------------------------------------------------

 -----------------------------------------------------------
 REACH  =     4
               -----------------CONNECTIONS-----------------
                            1              2              3
 -----------------------------------------------------------
 REACHES           4 TO     3     4 TO     5     4 TO    15
 -----------------------------------------------------------

 -----------------------------------------------------------
 REACH  =     5
               -----------------CONNECTIONS-----------------
                            1              2              3
 -----------------------------------------------------------
 REACHES           5 TO     4     5 TO     6     5 TO    16
 -----------------------------------------------------------

 -----------------------------------------------------------
 REACH  =     6
               -----------------CONNECTIONS-----------------
                            1              2              3
 -----------------------------------------------------------
 REACHES           6 TO     5     6 TO     7     6 TO    17
 -----------------------------------------------------------

 -----------------------------------------------------------
 REACH  =     7
               -----------------CONNECTIONS-----------------
                            1              2              3
 -----------------------------------------------------------
 REACHES           7 TO     6     7 TO     8     7 TO    18
 -----------------------------------------------------------

 -----------------------------------------------------------
 REACH  =     8
               -----------------CONNECTIONS-----------------
                            1              2              3
 -----------------------------------------------------------
 REACHES           8 TO     7     8 TO     9     8 TO    19
 -----------------------------------------------------------

 -----------------------------------------------------------
 REACH  =     9
               -----------------CONNECTIONS-----------------
                            1              2              3
 -----------------------------------------------------------
 REACHES           9 TO     8     9 TO    10     9 TO    20
 -----------------------------------------------------------

 -----------------------------------------------------------
 REACH  =    10
               -----------------CONNECTIONS-----------------
                            1              2              3
 -----------------------------------------------------------
 REACHES          10 TO     9    10 TO    11    10 TO    21
 -----------------------------------------------------------

 -----------------------------------------------------------
 REACH  =    11
               -----------------CONNECTIONS-----------------
                            1              2
 -----------------------------------------------------------
 REACHES          11 TO    10    11 TO    22
 -----------------------------------------------------------

 -----------------------------------------------------------
 REACH  =    12
               -----------------CONNECTIONS-----------------
                            1              2              3
 -----------------------------------------------------------
 REACHES          12 TO     1    12 TO    13    12 TO    23
 -----------------------------------------------------------

 -----------------------------------------------------------
 REACH  =    13
               -----------------CONNECTIONS-----------------
                            1              2              3
                            4
 -----------------------------------------------------------
 REACHES          13 TO     2    13 TO    12    13 TO    14
                  13 TO    24
 -----------------------------------------------------------

 -----------------------------------------------------------
 REACH  =    14
               -----------------CONNECTIONS-----------------
                            1              2              3
                            4
 -----------------------------------------------------------
 REACHES          14 TO     3    14 TO    13    14 TO    15
                  14 TO    25
 -----------------------------------------------------------

 -----------------------------------------------------------
 REACH  =    15
               -----------------CONNECTIONS-----------------
                            1              2              3
                            4
 -----------------------------------------------------------
 REACHES          15 TO     4    15 TO    14    15 TO    16
                  15 TO    26
 -----------------------------------------------------------

 -----------------------------------------------------------
 REACH  =    16
               -----------------CONNECTIONS-----------------
                            1              2              3
                            4
 -----------------------------------------------------------
 REACHES          16 TO     5    16 TO    15    16 TO    17
                  16 TO    27
 -----------------------------------------------------------

 -----------------------------------------------------------
 REACH  =    17
               -----------------CONNECTIONS-----------------
                            1              2              3
                            4
 -----------------------------------------------------------
 REACHES          17 TO     6    17 TO    16    17 TO    18
                  17 TO    28
 -----------------------------------------------------------

 -----------------------------------------------------------
 REACH  =    18
               -----------------CONNECTIONS-----------------
                            1              2              3
                            4
 -----------------------------------------------------------
 REACHES          18 TO     7    18 TO    17    18 TO    19
                  18 TO    29
 -----------------------------------------------------------

 -----------------------------------------------------------
 REACH  =    19
               -----------------CONNECTIONS-----------------
                            1              2              3
                            4
 -----------------------------------------------------------
 REACHES          19 TO     8    19 TO    18    19 TO    20
                  19 TO    30
 -----------------------------------------------------------

 -----------------------------------------------------------
 REACH  =    20
               -----------------CONNECTIONS-----------------
                            1              2              3
                            4
 -----------------------------------------------------------
 REACHES          20 TO     9    20 TO    19    20 TO    21
                  20 TO    31
 -----------------------------------------------------------

 -----------------------------------------------------------
 REACH  =    21
               -----------------CONNECTIONS-----------------
                            1              2              3
                            4
 -----------------------------------------------------------
 REACHES          21 TO    10    21 TO    20    21 TO    22
                  21 TO    32
 -----------------------------------------------------------

 -----------------------------------------------------------
 REACH  =    22
               -----------------CONNECTIONS-----------------
                            1              2              3
 -----------------------------------------------------------
 REACHES          22 TO    11    22 TO    21    22 TO    33
 -----------------------------------------------------------

 -----------------------------------------------------------
 REACH  =    23
               -----------------CONNECTIONS-----------------
                            1              2              3
 -----------------------------------------------------------
 REACHES          23 TO    12    23 TO    24    23 TO    34
 -----------------------------------------------------------

 -----------------------------------------------------------
 REACH  =    24
               -----------------CONNECTIONS-----------------
                            1              2              3
                            4
 -----------------------------------------------------------
 REACHES          24 TO    13    24 TO    23    24 TO    25
                  24 TO    35
 -----------------------------------------------------------

 -----------------------------------------------------------
 REACH  =    25
               -----------------CONNECTIONS-----------------
                            1              2              3
                            4
 -----------------------------------------------------------
 REACHES          25 TO    14    25 TO    24    25 TO    26
                  25 TO    36
 -----------------------------------------------------------

 -----------------------------------------------------------
 REACH  =    26
               -----------------CONNECTIONS-----------------
                            1              2              3
                            4
 -----------------------------------------------------------
 REACHES          26 TO    15    26 TO    25    26 TO    27
                  26 TO    37
 -----------------------------------------------------------

 -----------------------------------------------------------
 REACH  =    27
               -----------------CONNECTIONS-----------------
                            1              2              3
                            4
 -----------------------------------------------------------
 REACHES          27 TO    16    27 TO    26    27 TO    28
                  27 TO    38
 -----------------------------------------------------------

 -----------------------------------------------------------
 REACH  =    28
               -----------------CONNECTIONS-----------------
                            1              2              3
                            4
 -----------------------------------------------------------
 REACHES          28 TO    17    28 TO    27    28 TO    29
                  28 TO    39
 -----------------------------------------------------------

 -----------------------------------------------------------
 REACH  =    29
               -----------------CONNECTIONS-----------------
                            1              2              3
                            4
 -----------------------------------------------------------
 REACHES          29 TO    18    29 TO    28    29 TO    30
                  29 TO    40
 -----------------------------------------------------------

 -----------------------------------------------------------
 REACH  =    30
               -----------------CONNECTIONS-----------------
                            1              2              3
                            4
 -----------------------------------------------------------
 REACHES          30 TO    19    30 TO    29    30 TO    31
                  30 TO    41
 -----------------------------------------------------------

 -----------------------------------------------------------
 REACH  =    31
               -----------------CONNECTIONS-----------------
                            1              2              3
                            4
 -----------------------------------------------------------
 REACHES          31 TO    20    31 TO    30    31 TO    32
                  31 TO    42
 -----------------------------------------------------------

 -----------------------------------------------------------
 REACH  =    32
               -----------------CONNECTIONS-----------------
                            1              2              3
                            4
 -----------------------------------------------------------
 REACHES          32 TO    21    32 TO    31    32 TO    33
                  32 TO    43
 -----------------------------------------------------------

 -----------------------------------------------------------
 REACH  =    33
               -----------------CONNECTIONS-----------------
                            1              2              3
 -----------------------------------------------------------
 REACHES          33 TO    22    33 TO    32    33 TO    44
 -----------------------------------------------------------

 -----------------------------------------------------------
 REACH  =    34
               -----------------CONNECTIONS-----------------
                            1              2              3
 -----------------------------------------------------------
 REACHES          34 TO    23    34 TO    35    34 TO    45
 -----------------------------------------------------------

 -----------------------------------------------------------
 REACH  =    35
               -----------------CONNECTIONS-----------------
                            1              2              3
                            4
 -----------------------------------------------------------
 REACHES          35 TO    24    35 TO    34    35 TO    36
                  35 TO    46
 -----------------------------------------------------------

 -----------------------------------------------------------
 REACH  =    36
               -----------------CONNECTIONS-----------------
                            1              2              3
                            4
 -----------------------------------------------------------
 REACHES          36 TO    25    36 TO    35    36 TO    37
                  36 TO    47
 -----------------------------------------------------------

 -----------------------------------------------------------
 REACH  =    37
               -----------------CONNECTIONS-----------------
                            1              2              3
                            4
 -----------------------------------------------------------
 REACHES          37 TO    26    37 TO    36    37 TO    38
                  37 TO    48
 -----------------------------------------------------------

 -----------------------------------------------------------
 REACH  =    38
               -----------------CONNECTIONS-----------------
                            1              2              3
                            4
 -----------------------------------------------------------
 REACHES          38 TO    27    38 TO    37    38 TO    39
                  38 TO    49
 -----------------------------------------------------------

 -----------------------------------------------------------
 REACH  =    39
               -----------------CONNECTIONS-----------------
                            1              2              3
                            4
 -----------------------------------------------------------
 REACHES          39 TO    28    39 TO    38    39 TO    40
                  39 TO    50
 -----------------------------------------------------------

 -----------------------------------------------------------
 REACH  =    40
               -----------------CONNECTIONS-----------------
                            1              2              3
                            4
 -----------------------------------------------------------
 REACHES          40 TO    29    40 TO    39    40 TO    41
                  40 TO    51
 -----------------------------------------------------------

 -----------------------------------------------------------
 REACH  =    41
               -----------------CONNECTIONS-----------------
                            1              2              3
                            4
 -----------------------------------------------------------
 REACHES          41 TO    30    41 TO    40    41 TO    42
                  41 TO    52
 -----------------------------------------------------------

 -----------------------------------------------------------
 REACH  =    42
               -----------------CONNECTIONS-----------------
                            1              2              3
                            4
 -----------------------------------------------------------
 REACHES          42 TO    31    42 TO    41    42 TO    43
                  42 TO    53
 -----------------------------------------------------------

 -----------------------------------------------------------
 REACH  =    43
               -----------------CONNECTIONS-----------------
                            1              2              3
                            4
 -----------------------------------------------------------
 REACHES          43 TO    32    43 TO    42    43 TO    44
                  43 TO    54
 -----------------------------------------------------------

 -----------------------------------------------------------
 REACH  =    44
               -----------------CONNECTIONS-----------------
                            1              2              3
 -----------------------------------------------------------
 REACHES          44 TO    33    44 TO    43    44 TO    55
 -----------------------------------------------------------

 -----------------------------------------------------------
 REACH  =    45
               -----------------CONNECTIONS-----------------
                            1              2              3
 -----------------------------------------------------------
 REACHES          45 TO    34    45 TO    46    45 TO    56
 -----------------------------------------------------------

 -----------------------------------------------------------
 REACH  =    46
               -----------------CONNECTIONS-----------------
                            1              2              3
                            4
 -----------------------------------------------------------
 REACHES          46 TO    35    46 TO    45    46 TO    47
                  46 TO    57
 -----------------------------------------------------------

 -----------------------------------------------------------
 REACH  =    47
               -----------------CONNECTIONS-----------------
                            1              2              3
                            4
 -----------------------------------------------------------
 REACHES          47 TO    36    47 TO    46    47 TO    48
                  47 TO    58
 -----------------------------------------------------------

 -----------------------------------------------------------
 REACH  =    48
               -----------------CONNECTIONS-----------------
                            1              2              3
                            4
 -----------------------------------------------------------
 REACHES          48 TO    37    48 TO    47    48 TO    49
                  48 TO    59
 -----------------------------------------------------------

 -----------------------------------------------------------
 REACH  =    49
               -----------------CONNECTIONS-----------------
                            1              2              3
                            4
 -----------------------------------------------------------
 REACHES          49 TO    38    49 TO    48    49 TO    50
                  49 TO    60
 -----------------------------------------------------------

 -----------------------------------------------------------
 REACH  =    50
               -----------------CONNECTIONS-----------------
                            1              2              3
                            4
 -----------------------------------------------------------
 REACHES          50 TO    39    50 TO    49    50 TO    51
                  50 TO    61
 -----------------------------------------------------------

 -----------------------------------------------------------
 REACH  =    51
               -----------------CONNECTIONS-----------------
                            1              2              3
                            4
 -----------------------------------------------------------
 REACHES          51 TO    40    51 TO    50    51 TO    52
                  51 TO    62
 -----------------------------------------------------------

 -----------------------------------------------------------
 REACH  =    52
               -----------------CONNECTIONS-----------------
                            1              2              3
                            4
 -----------------------------------------------------------
 REACHES          52 TO    41    52 TO    51    52 TO    53
                  52 TO    63
 -----------------------------------------------------------

 -----------------------------------------------------------
 REACH  =    53
               -----------------CONNECTIONS-----------------
                            1              2              3
                            4
 -----------------------------------------------------------
 REACHES          53 TO    42    53 TO    52    53 TO    54
                  53 TO    64
 -----------------------------------------------------------

 -----------------------------------------------------------
 REACH  =    54
               -----------------CONNECTIONS-----------------
                            1              2              3
                            4
 -----------------------------------------------------------
 REACHES          54 TO    43    54 TO    53    54 TO    55
                  54 TO    65
 -----------------------------------------------------------

 -----------------------------------------------------------
 REACH  =    55
               -----------------CONNECTIONS-----------------
                            1              2              3
 -----------------------------------------------------------
 REACHES          55 TO    44    55 TO    54    55 TO    66
 -----------------------------------------------------------

 -----------------------------------------------------------
 REACH  =    56
               -----------------CONNECTIONS-----------------
                            1              2              3
 -----------------------------------------------------------
 REACHES          56 TO    45    56 TO    57    56 TO    67
 -----------------------------------------------------------

 -----------------------------------------------------------
 REACH  =    57
               -----------------CONNECTIONS-----------------
                            1              2              3
                            4
 -----------------------------------------------------------
 REACHES          57 TO    46    57 TO    56    57 TO    58
                  57 TO    68
 -----------------------------------------------------------

 -----------------------------------------------------------
 REACH  =    58
               -----------------CONNECTIONS-----------------
                            1              2              3
                            4
 -----------------------------------------------------------
 REACHES          58 TO    47    58 TO    57    58 TO    59
                  58 TO    69
 -----------------------------------------------------------

 -----------------------------------------------------------
 REACH  =    59
               -----------------CONNECTIONS-----------------
                            1              2              3
                            4
 -----------------------------------------------------------
 REACHES          59 TO    48    59 TO    58    59 TO    60
                  59 TO    70
 -----------------------------------------------------------

 -----------------------------------------------------------
 REACH  =    60
               -----------------CONNECTIONS-----------------
                            1              2              3
                            4
 -----------------------------------------------------------
 REACHES          60 TO    49    60 TO    59    60 TO    61
                  60 TO    71
 -----------------------------------------------------------

 -----------------------------------------------------------
 REACH  =    61
               -----------------CONNECTIONS-----------------
                            1              2              3
                            4
 -----------------------------------------------------------
 REACHES          61 TO    50    61 TO    60    61 TO    62
                  61 TO    72
 -----------------------------------------------------------

 -----------------------------------------------------------
 REACH  =    62
               -----------------CONNECTIONS-----------------
                            1              2              3
                            4
 -----------------------------------------------------------
 REACHES          62 TO    51    62 TO    61    62 TO    63
                  62 TO    73
 -----------------------------------------------------------

 -----------------------------------------------------------
 REACH  =    63
               -----------------CONNECTIONS-----------------
                            1              2              3
                            4
 -----------------------------------------------------------
 REACHES          63 TO    52    63 TO    62    63 TO    64
                  63 TO    74
 -----------------------------------------------------------

 -----------------------------------------------------------
 REACH  =    64
               -----------------CONNECTIONS-----------------
                            1              2              3
                            4
 -----------------------------------------------------------
 REACHES          64 TO    53    64 TO    63    64 TO    65
                  64 TO    75
 -----------------------------------------------------------

 -----------------------------------------------------------
 REACH  =    65
               -----------------CONNECTIONS-----------------
                            1              2              3
                            4
 -----------------------------------------------------------
 REACHES          65 TO    54    65 TO    64    65 TO    66
                  65 TO    76
 -----------------------------------------------------------

 -----------------------------------------------------------
 REACH  =    66
               -----------------CONNECTIONS-----------------
                            1              2              3
 -----------------------------------------------------------
 REACHES          66 TO    55    66 TO    65    66 TO    77
 -----------------------------------------------------------

 -----------------------------------------------------------
 REACH  =    67
               -----------------CONNECTIONS-----------------
                            1              2              3
 -----------------------------------------------------------
 REACHES          67 TO    56    67 TO    68    67 TO    78
 -----------------------------------------------------------

 -----------------------------------------------------------
 REACH  =    68
               -----------------CONNECTIONS-----------------
                            1              2              3
                            4
 -----------------------------------------------------------
 REACHES          68 TO    57    68 TO    67    68 TO    69
                  68 TO    79
 -----------------------------------------------------------

 -----------------------------------------------------------
 REACH  =    69
               -----------------CONNECTIONS-----------------
                            1              2              3
                            4
 -----------------------------------------------------------
 REACHES          69 TO    58    69 TO    68    69 TO    70
                  69 TO    80
 -----------------------------------------------------------

 -----------------------------------------------------------
 REACH  =    70
               -----------------CONNECTIONS-----------------
                            1              2              3
                            4
 -----------------------------------------------------------
 REACHES          70 TO    59    70 TO    69    70 TO    71
                  70 TO    81
 -----------------------------------------------------------

 -----------------------------------------------------------
 REACH  =    71
               -----------------CONNECTIONS-----------------
                            1              2              3
                            4
 -----------------------------------------------------------
 REACHES          71 TO    60    71 TO    70    71 TO    72
                  71 TO    82
 -----------------------------------------------------------

 -----------------------------------------------------------
 REACH  =    72
               -----------------CONNECTIONS-----------------
                            1              2              3
                            4
 -----------------------------------------------------------
 REACHES          72 TO    61    72 TO    71    72 TO    73
                  72 TO    83
 -----------------------------------------------------------

 -----------------------------------------------------------
 REACH  =    73
               -----------------CONNECTIONS-----------------
                            1              2              3
                            4
 -----------------------------------------------------------
 REACHES          73 TO    62    73 TO    72    73 TO    74
                  73 TO    84
 -----------------------------------------------------------

 -----------------------------------------------------------
 REACH  =    74
               -----------------CONNECTIONS-----------------
                            1              2              3
                            4
 -----------------------------------------------------------
 REACHES          74 TO    63    74 TO    73    74 TO    75
                  74 TO    85
 -----------------------------------------------------------

 -----------------------------------------------------------
 REACH  =    75
               -----------------CONNECTIONS-----------------
                            1              2              3
                            4
 -----------------------------------------------------------
 REACHES          75 TO    64    75 TO    74    75 TO    76
                  75 TO    86
 -----------------------------------------------------------

 -----------------------------------------------------------
 REACH  =    76
               -----------------CONNECTIONS-----------------
                            1              2              3
                            4
 -----------------------------------------------------------
 REACHES          76 TO    65    76 TO    75    76 TO    77
                  76 TO    87
 -----------------------------------------------------------

 -----------------------------------------------------------
 REACH  =    77
               -----------------CONNECTIONS-----------------
                            1              2              3
 -----------------------------------------------------------
 REACHES          77 TO    66    77 TO    76    77 TO    88
 -----------------------------------------------------------

 -----------------------------------------------------------
 REACH  =    78
               -----------------CONNECTIONS-----------------
                            1              2              3
 -----------------------------------------------------------
 REACHES          78 TO    67    78 TO    79    78 TO    89
 -----------------------------------------------------------

 -----------------------------------------------------------
 REACH  =    79
               -----------------CONNECTIONS-----------------
                            1              2              3
                            4
 -----------------------------------------------------------
 REACHES          79 TO    68    79 TO    78    79 TO    80
                  79 TO    90
 -----------------------------------------------------------

 -----------------------------------------------------------
 REACH  =    80
               -----------------CONNECTIONS-----------------
                            1              2              3
                            4
 -----------------------------------------------------------
 REACHES          80 TO    69    80 TO    79    80 TO    81
                  80 TO    91
 -----------------------------------------------------------

 -----------------------------------------------------------
 REACH  =    81
               -----------------CONNECTIONS-----------------
                            1              2              3
                            4
 -----------------------------------------------------------
 REACHES          81 TO    70    81 TO    80    81 TO    82
                  81 TO    92
 -----------------------------------------------------------

 -----------------------------------------------------------
 REACH  =    82
               -----------------CONNECTIONS-----------------
                            1              2              3
                            4
 -----------------------------------------------------------
 REACHES          82 TO    71    82 TO    81    82 TO    83
                  82 TO    93
 -----------------------------------------------------------

 -----------------------------------------------------------
 REACH  =    83
               -----------------CONNECTIONS-----------------
                            1              2              3
                            4
 -----------------------------------------------------------
 REACHES          83 TO    72    83 TO    82    83 TO    84
                  83 TO    94
 -----------------------------------------------------------

 -----------------------------------------------------------
 REACH  =    84
               -----------------CONNECTIONS-----------------
                            1              2              3
                            4
 -----------------------------------------------------------
 REACHES          84 TO    73    84 TO    83    84 TO    85
                  84 TO    95
 -----------------------------------------------------------

 -----------------------------------------------------------
 REACH  =    85
               -----------------CONNECTIONS-----------------
                            1              2              3
                            4
 -----------------------------------------------------------
 REACHES          85 TO    74    85 TO    84    85 TO    86
                  85 TO    96
 -----------------------------------------------------------

 -----------------------------------------------------------
 REACH  =    86
               -----------------CONNECTIONS-----------------
                            1              2              3
                            4
 -----------------------------------------------------------
 REACHES          86 TO    75    86 TO    85    86 TO    87
                  86 TO    97
 -----------------------------------------------------------

 -----------------------------------------------------------
 REACH  =    87
               -----------------CONNECTIONS-----------------
                            1              2              3
                            4
 -----------------------------------------------------------
 REACHES          87 TO    76    87 TO    86    87 TO    88
                  87 TO    98
 -----------------------------------------------------------

 -----------------------------------------------------------
 REACH  =    88
               -----------------CONNECTIONS-----------------
                            1              2              3
 -----------------------------------------------------------
 REACHES          88 TO    77    88 TO    87    88 TO    99
 -----------------------------------------------------------

 -----------------------------------------------------------
 REACH  =    89
               -----------------CONNECTIONS-----------------
                            1              2              3
 -----------------------------------------------------------
 REACHES          89 TO    78    89 TO    90    89 TO   100
 -----------------------------------------------------------

 -----------------------------------------------------------
 REACH  =    90
               -----------------CONNECTIONS-----------------
                            1              2              3
                            4
 -----------------------------------------------------------
 REACHES          90 TO    79    90 TO    89    90 TO    91
                  90 TO   101
 -----------------------------------------------------------

 -----------------------------------------------------------
 REACH  =    91
               -----------------CONNECTIONS-----------------
                            1              2              3
                            4
 -----------------------------------------------------------
 REACHES          91 TO    80    91 TO    90    91 TO    92
                  91 TO   102
 -----------------------------------------------------------

 -----------------------------------------------------------
 REACH  =    92
               -----------------CONNECTIONS-----------------
                            1              2              3
                            4
 -----------------------------------------------------------
 REACHES          92 TO    81    92 TO    91    92 TO    93
                  92 TO   103
 -----------------------------------------------------------

 -----------------------------------------------------------
 REACH  =    93
               -----------------CONNECTIONS-----------------
                            1              2              3
                            4
 -----------------------------------------------------------
 REACHES          93 TO    82    93 TO    92    93 TO    94
                  93 TO   104
 -----------------------------------------------------------

 -----------------------------------------------------------
 REACH  =    94
               -----------------CONNECTIONS-----------------
                            1              2              3
                            4
 -----------------------------------------------------------
 REACHES          94 TO    83    94 TO    93    94 TO    95
                  94 TO   105
 -----------------------------------------------------------

 -----------------------------------------------------------
 REACH  =    95
               -----------------CONNECTIONS-----------------
                            1              2              3
                            4
 -----------------------------------------------------------
 REACHES          95 TO    84    95 TO    94    95 TO    96
                  95 TO   106
 -----------------------------------------------------------

 -----------------------------------------------------------
 REACH  =    96
               -----------------CONNECTIONS-----------------
                            1              2              3
                            4
 -----------------------------------------------------------
 REACHES          96 TO    85    96 TO    95    96 TO    97
                  96 TO   107
 -----------------------------------------------------------

 -----------------------------------------------------------
 REACH  =    97
               -----------------CONNECTIONS-----------------
                            1              2              3
                            4
 -----------------------------------------------------------
 REACHES          97 TO    86    97 TO    96    97 TO    98
                  97 TO   108
 -----------------------------------------------------------

 -----------------------------------------------------------
 REACH  =    98
               -----------------CONNECTIONS-----------------
                            1              2              3
                            4
 -----------------------------------------------------------
 REACHES          98 TO    87    98 TO    97    98 TO    99
                  98 TO   109
 -----------------------------------------------------------

 -----------------------------------------------------------
 REACH  =    99
               -----------------CONNECTIONS-----------------
                            1              2              3
 -----------------------------------------------------------
 REACHES          99 TO    88    99 TO    98    99 TO   110
 -----------------------------------------------------------

 -----------------------------------------------------------
 REACH  =   100
               -----------------CONNECTIONS-----------------
                            1              2              3
 -----------------------------------------------------------
 REACHES         100 TO    89   100 TO   101   100 TO   111
 -----------------------------------------------------------

 -----------------------------------------------------------
 REACH  =   101
               -----------------CONNECTIONS-----------------
                            1              2              3
                            4
 -----------------------------------------------------------
 REACHES         101 TO    90   101 TO   100   101 TO   102
                 101 TO   112
 -----------------------------------------------------------

 -----------------------------------------------------------
 REACH  =   102
               -----------------CONNECTIONS-----------------
                            1              2              3
                            4
 -----------------------------------------------------------
 REACHES         102 TO    91   102 TO   101   102 TO   103
                 102 TO   113
 -----------------------------------------------------------

 -----------------------------------------------------------
 REACH  =   103
               -----------------CONNECTIONS-----------------
                            1              2              3
                            4
 -----------------------------------------------------------
 REACHES         103 TO    92   103 TO   102   103 TO   104
                 103 TO   114
 -----------------------------------------------------------

 -----------------------------------------------------------
 REACH  =   104
               -----------------CONNECTIONS-----------------
                            1              2              3
                            4
 -----------------------------------------------------------
 REACHES         104 TO    93   104 TO   103   104 TO   105
                 104 TO   115
 -----------------------------------------------------------

 -----------------------------------------------------------
 REACH  =   105
               -----------------CONNECTIONS-----------------
                            1              2              3
                            4
 -----------------------------------------------------------
 REACHES         105 TO    94   105 TO   104   105 TO   106
                 105 TO   116
 -----------------------------------------------------------

 -----------------------------------------------------------
 REACH  =   106
               -----------------CONNECTIONS-----------------
                            1              2              3
                            4
 -----------------------------------------------------------
 REACHES         106 TO    95   106 TO   105   106 TO   107
                 106 TO   117
 -----------------------------------------------------------

 -----------------------------------------------------------
 REACH  =   107
               -----------------CONNECTIONS-----------------
                            1              2              3
                            4
 -----------------------------------------------------------
 REACHES         107 TO    96   107 TO   106   107 TO   108
                 107 TO   118
 -----------------------------------------------------------

 -----------------------------------------------------------
 REACH  =   108
               -----------------CONNECTIONS-----------------
                            1              2              3
                            4
 -----------------------------------------------------------
 REACHES         108 TO    97   108 TO   107   108 TO   109
                 108 TO   119
 -----------------------------------------------------------

 -----------------------------------------------------------
 REACH  =   109
               -----------------CONNECTIONS-----------------
                            1              2              3
                            4
 -----------------------------------------------------------
 REACHES         109 TO    98   109 TO   108   109 TO   110
                 109 TO   120
 -----------------------------------------------------------

 -----------------------------------------------------------
 REACH  =   110
               -----------------CONNECTIONS-----------------
                            1              2              3
 -----------------------------------------------------------
 REACHES         110 TO    99   110 TO   109   110 TO   121
 -----------------------------------------------------------

 -----------------------------------------------------------
 REACH  =   111
               -----------------CONNECTIONS-----------------
                            1              2
 -----------------------------------------------------------
 REACHES         111 TO   100   111 TO   112
 -----------------------------------------------------------

 -----------------------------------------------------------
 REACH  =   112
               -----------------CONNECTIONS-----------------
                            1              2              3
 -----------------------------------------------------------
 REACHES         112 TO   101   112 TO   111   112 TO   113
 -----------------------------------------------------------

 -----------------------------------------------------------
 REACH  =   113
               -----------------CONNECTIONS-----------------
                            1              2              3
 -----------------------------------------------------------
 REACHES         113 TO   102   113 TO   112   113 TO   114
 -----------------------------------------------------------

 -----------------------------------------------------------
 REACH  =   114
               -----------------CONNECTIONS-----------------
                            1              2              3
 -----------------------------------------------------------
 REACHES         114 TO   103   114 TO   113   114 TO   115
 -----------------------------------------------------------

 -----------------------------------------------------------
 REACH  =   115
               -----------------CONNECTIONS-----------------
                            1              2              3
 -----------------------------------------------------------
 REACHES         115 TO   104   115 TO   114   115 TO   116
 -----------------------------------------------------------

 -----------------------------------------------------------
 REACH  =   116
               -----------------CONNECTIONS-----------------
                            1              2              3
 -----------------------------------------------------------
 REACHES         116 TO   105   116 TO   115   116 TO   117
 -----------------------------------------------------------

 -----------------------------------------------------------
 REACH  =   117
               -----------------CONNECTIONS-----------------
                            1              2              3
 -----------------------------------------------------------
 REACHES         117 TO   106   117 TO   116   117 TO   118
 -----------------------------------------------------------

 -----------------------------------------------------------
 REACH  =   118
               -----------------CONNECTIONS-----------------
                            1              2              3
 -----------------------------------------------------------
 REACHES         118 TO   107   118 TO   117   118 TO   119
 -----------------------------------------------------------

 -----------------------------------------------------------
 REACH  =   119
               -----------------CONNECTIONS-----------------
                            1              2              3
 -----------------------------------------------------------
 REACHES         119 TO   108   119 TO   118   119 TO   120
 -----------------------------------------------------------

 -----------------------------------------------------------
 REACH  =   120
               -----------------CONNECTIONS-----------------
                            1              2              3
 -----------------------------------------------------------
 REACHES         120 TO   109   120 TO   119   120 TO   121
 -----------------------------------------------------------

 -----------------------------------------------------------
 REACH  =   121
               -----------------CONNECTIONS-----------------
                            1              2
 -----------------------------------------------------------
 REACHES         121 TO   110   121 TO   120
 -----------------------------------------------------------


 TIME-INVARIANT SURFACE-WATER ROUTING REACH DATA
  REACH IROUTETYPE SOLUTION METHOD      IRGNUM    IRG    LAY    ROW    COL       DLEN
 --------------------------------------------------------------------------------------------------
      1          3 DIFFUSIVE-WAVE            1      1      1      1      1   500.    
      2          3 DIFFUSIVE-WAVE            2      2      1      2      1   500.    
      3          3 DIFFUSIVE-WAVE            3      3      1      3      1   500.    
      4          3 DIFFUSIVE-WAVE            4      4      1      4      1   500.    
      5          3 DIFFUSIVE-WAVE            5      5      1      5      1   500.    
      6          3 DIFFUSIVE-WAVE            6      6      1      6      1   500.    
      7          3 DIFFUSIVE-WAVE            7      7      1      7      1   500.    
      8          3 DIFFUSIVE-WAVE            8      8      1      8      1   500.    
      9          3 DIFFUSIVE-WAVE            9      9      1      9      1   500.    
     10          3 DIFFUSIVE-WAVE           10     10      1     10      1   500.    
     11          3 DIFFUSIVE-WAVE           11     11      1     11      1   500.    
     12          3 DIFFUSIVE-WAVE           12     12      1      1      2   500.    
     13          3 DIFFUSIVE-WAVE           13     13      1      2      2   500.    
     14          3 DIFFUSIVE-WAVE           14     14      1      3      2   500.    
     15          3 DIFFUSIVE-WAVE           15     15      1      4      2   500.    
     16          3 DIFFUSIVE-WAVE           16     16      1      5      2   500.    
     17          3 DIFFUSIVE-WAVE           17     17      1      6      2   500.    
     18          3 DIFFUSIVE-WAVE           18     18      1      7      2   500.    
     19          3 DIFFUSIVE-WAVE           19     19      1      8      2   500.    
     20          3 DIFFUSIVE-WAVE           20     20      1      9      2   500.    
     21          3 DIFFUSIVE-WAVE           21     21      1     10      2   500.    
     22          3 DIFFUSIVE-WAVE           22     22      1     11      2   500.    
     23          3 DIFFUSIVE-WAVE           23     23      1      1      3   500.    
     24          3 DIFFUSIVE-WAVE           24     24      1      2      3   500.    
     25          3 DIFFUSIVE-WAVE           25     25      1      3      3   500.    
     26          3 DIFFUSIVE-WAVE           26     26      1      4      3   500.    
     27          3 DIFFUSIVE-WAVE           27     27      1      5      3   500.    
     28          3 DIFFUSIVE-WAVE           28     28      1      6      3   500.    
     29          3 DIFFUSIVE-WAVE           29     29      1      7      3   500.    
     30          3 DIFFUSIVE-WAVE           30     30      1      8      3   500.    
     31          3 DIFFUSIVE-WAVE           31     31      1      9      3   500.    
     32          3 DIFFUSIVE-WAVE           32     32      1     10      3   500.    
     33          3 DIFFUSIVE-WAVE           33     33      1     11      3   500.    
     34          3 DIFFUSIVE-WAVE           34     34      1      1      4   500.    
     35          3 DIFFUSIVE-WAVE           35     35      1      2      4   500.    
     36          3 DIFFUSIVE-WAVE           36     36      1      3      4   500.    
     37          3 DIFFUSIVE-WAVE           37     37      1      4      4   500.    
     38          3 DIFFUSIVE-WAVE           38     38      1      5      4   500.    
     39          3 DIFFUSIVE-WAVE           39     39      1      6      4   500.    
     40          3 DIFFUSIVE-WAVE           40     40      1      7      4   500.    
     41          3 DIFFUSIVE-WAVE           41     41      1      8      4   500.    
     42          3 DIFFUSIVE-WAVE           42     42      1      9      4   500.    
     43          3 DIFFUSIVE-WAVE           43     43      1     10      4   500.    
     44          3 DIFFUSIVE-WAVE           44     44      1     11      4   500.    
     45          3 DIFFUSIVE-WAVE           45     45      1      1      5   500.    
     46          3 DIFFUSIVE-WAVE           46     46      1      2      5   500.    
     47          3 DIFFUSIVE-WAVE           47     47      1      3      5   500.    
     48          3 DIFFUSIVE-WAVE           48     48      1      4      5   500.    
     49          3 DIFFUSIVE-WAVE           49     49      1      5      5   500.    
     50          3 DIFFUSIVE-WAVE           50     50      1      6      5   500.    
     51          3 DIFFUSIVE-WAVE           51     51      1      7      5   500.    
     52          3 DIFFUSIVE-WAVE           52     52      1      8      5   500.    
     53          3 DIFFUSIVE-WAVE           53     53      1      9      5   500.    
     54          3 DIFFUSIVE-WAVE           54     54      1     10      5   500.    
     55          3 DIFFUSIVE-WAVE           55     55      1     11      5   500.    
     56          3 DIFFUSIVE-WAVE           56     56      1      1      6   500.    
     57          3 DIFFUSIVE-WAVE           57     57      1      2      6   500.    
     58          3 DIFFUSIVE-WAVE           58     58      1      3      6   500.    
     59          3 DIFFUSIVE-WAVE           59     59      1      4      6   500.    
     60          3 DIFFUSIVE-WAVE           60     60      1      5      6   500.    
     61          3 DIFFUSIVE-WAVE           61     61      1      6      6   500.    
     62          3 DIFFUSIVE-WAVE           62     62      1      7      6   500.    
     63          3 DIFFUSIVE-WAVE           63     63      1      8      6   500.    
     64          3 DIFFUSIVE-WAVE           64     64      1      9      6   500.    
     65          3 DIFFUSIVE-WAVE           65     65      1     10      6   500.    
     66          3 DIFFUSIVE-WAVE           66     66      1     11      6   500.    
     67          3 DIFFUSIVE-WAVE           67     67      1      1      7   500.    
     68          3 DIFFUSIVE-WAVE           68     68      1      2      7   500.    
     69          3 DIFFUSIVE-WAVE           69     69      1      3      7   500.    
     70          3 DIFFUSIVE-WAVE           70     70      1      4      7   500.    
     71          3 DIFFUSIVE-WAVE           71     71      1      5      7   500.    
     72          3 DIFFUSIVE-WAVE           72     72      1      6      7   500.    
     73          3 DIFFUSIVE-WAVE           73     73      1      7      7   500.    
     74          3 DIFFUSIVE-WAVE           74     74      1      8      7   500.    
     75          3 DIFFUSIVE-WAVE           75     75      1      9      7   500.    
     76          3 DIFFUSIVE-WAVE           76     76      1     10      7   500.    
     77          3 DIFFUSIVE-WAVE           77     77      1     11      7   500.    
     78          3 DIFFUSIVE-WAVE           78     78      1      1      8   500.    
     79          3 DIFFUSIVE-WAVE           79     79      1      2      8   500.    
     80          3 DIFFUSIVE-WAVE           80     80      1      3      8   500.    
     81          3 DIFFUSIVE-WAVE           81     81      1      4      8   500.    
     82          3 DIFFUSIVE-WAVE           82     82      1      5      8   500.    
     83          3 DIFFUSIVE-WAVE           83     83      1      6      8   500.    
     84          3 DIFFUSIVE-WAVE           84     84      1      7      8   500.    
     85          3 DIFFUSIVE-WAVE           85     85      1      8      8   500.    
     86          3 DIFFUSIVE-WAVE           86     86      1      9      8   500.    
     87          3 DIFFUSIVE-WAVE           87     87      1     10      8   500.    
     88          3 DIFFUSIVE-WAVE           88     88      1     11      8   500.    
     89          3 DIFFUSIVE-WAVE           89     89      1      1      9   500.    
     90          3 DIFFUSIVE-WAVE           90     90      1      2      9   500.    
     91          3 DIFFUSIVE-WAVE           91     91      1      3      9   500.    
     92          3 DIFFUSIVE-WAVE           92     92      1      4      9   500.    
     93          3 DIFFUSIVE-WAVE           93     93      1      5      9   500.    
     94          3 DIFFUSIVE-WAVE           94     94      1      6      9   500.    
     95          3 DIFFUSIVE-WAVE           95     95      1      7      9   500.    
     96          3 DIFFUSIVE-WAVE           96     96      1      8      9   500.    
     97          3 DIFFUSIVE-WAVE           97     97      1      9      9   500.    
     98          3 DIFFUSIVE-WAVE           98     98      1     10      9   500.    
     99          3 DIFFUSIVE-WAVE           99     99      1     11      9   500.    
    100          3 DIFFUSIVE-WAVE          100    100      1      1     10   500.    
    101          3 DIFFUSIVE-WAVE          101    101      1      2     10   500.    
    102          3 DIFFUSIVE-WAVE          102    102      1      3     10   500.    
    103          3 DIFFUSIVE-WAVE          103    103      1      4     10   500.    
    104          3 DIFFUSIVE-WAVE          104    104      1      5     10   500.    
    105          3 DIFFUSIVE-WAVE          105    105      1      6     10   500.    
    106          3 DIFFUSIVE-WAVE          106    106      1      7     10   500.    
    107          3 DIFFUSIVE-WAVE          107    107      1      8     10   500.    
    108          3 DIFFUSIVE-WAVE          108    108      1      9     10   500.    
    109          3 DIFFUSIVE-WAVE          109    109      1     10     10   500.    
    110          3 DIFFUSIVE-WAVE          110    110      1     11     10   500.    
    111          3 DIFFUSIVE-WAVE          111    111      1      1     11   500.    
    112          3 DIFFUSIVE-WAVE          112    112      1      2     11   500.    
    113          3 DIFFUSIVE-WAVE          113    113      1      3     11   500.    
    114          3 DIFFUSIVE-WAVE          114    114      1      4     11   500.    
    115          3 DIFFUSIVE-WAVE          115    115      1      5     11   500.    
    116          3 DIFFUSIVE-WAVE          116    116      1      6     11   500.    
    117          3 DIFFUSIVE-WAVE          117    117      1      7     11   500.    
    118          3 DIFFUSIVE-WAVE          118    118      1      8     11   500.    
    119          3 DIFFUSIVE-WAVE          119    119      1      9     11   500.    
    120          3 DIFFUSIVE-WAVE          120    120      1     10     11   500.    
    121          3 DIFFUSIVE-WAVE          121    121      1     11     11   500.    


 SWR REACH GROUPS: REACHES IN REACH GROUP
 ---------------------------------------------------------------------
 REACH GROUP =     1 IRGNUM =     1    REACHES     1
 REACH GROUP =     2 IRGNUM =     2    REACHES     2
 REACH GROUP =     3 IRGNUM =     3    REACHES     3
 REACH GROUP =     4 IRGNUM =     4    REACHES     4
 REACH GROUP =     5 IRGNUM =     5    REACHES     5
 REACH GROUP =     6 IRGNUM =     6    REACHES     6
 REACH GROUP =     7 IRGNUM =     7    REACHES     7
 REACH GROUP =     8 IRGNUM =     8    REACHES     8
 REACH GROUP =     9 IRGNUM =     9    REACHES     9
 REACH GROUP =    10 IRGNUM =    10    REACHES    10
 REACH GROUP =    11 IRGNUM =    11    REACHES    11
 REACH GROUP =    12 IRGNUM =    12    REACHES    12
 REACH GROUP =    13 IRGNUM =    13    REACHES    13
 REACH GROUP =    14 IRGNUM =    14    REACHES    14
 REACH GROUP =    15 IRGNUM =    15    REACHES    15
 REACH GROUP =    16 IRGNUM =    16    REACHES    16
 REACH GROUP =    17 IRGNUM =    17    REACHES    17
 REACH GROUP =    18 IRGNUM =    18    REACHES    18
 REACH GROUP =    19 IRGNUM =    19    REACHES    19
 REACH GROUP =    20 IRGNUM =    20    REACHES    20
 REACH GROUP =    21 IRGNUM =    21    REACHES    21
 REACH GROUP =    22 IRGNUM =    22    REACHES    22
 REACH GROUP =    23 IRGNUM =    23    REACHES    23
 REACH GROUP =    24 IRGNUM =    24    REACHES    24
 REACH GROUP =    25 IRGNUM =    25    REACHES    25
 REACH GROUP =    26 IRGNUM =    26    REACHES    26
 REACH GROUP =    27 IRGNUM =    27    REACHES    27
 REACH GROUP =    28 IRGNUM =    28    REACHES    28
 REACH GROUP =    29 IRGNUM =    29    REACHES    29
 REACH GROUP =    30 IRGNUM =    30    REACHES    30
 REACH GROUP =    31 IRGNUM =    31    REACHES    31
 REACH GROUP =    32 IRGNUM =    32    REACHES    32
 REACH GROUP =    33 IRGNUM =    33    REACHES    33
 REACH GROUP =    34 IRGNUM =    34    REACHES    34
 REACH GROUP =    35 IRGNUM =    35    REACHES    35
 REACH GROUP =    36 IRGNUM =    36    REACHES    36
 REACH GROUP =    37 IRGNUM =    37    REACHES    37
 REACH GROUP =    38 IRGNUM =    38    REACHES    38
 REACH GROUP =    39 IRGNUM =    39    REACHES    39
 REACH GROUP =    40 IRGNUM =    40    REACHES    40
 REACH GROUP =    41 IRGNUM =    41    REACHES    41
 REACH GROUP =    42 IRGNUM =    42    REACHES    42
 REACH GROUP =    43 IRGNUM =    43    REACHES    43
 REACH GROUP =    44 IRGNUM =    44    REACHES    44
 REACH GROUP =    45 IRGNUM =    45    REACHES    45
 REACH GROUP =    46 IRGNUM =    46    REACHES    46
 REACH GROUP =    47 IRGNUM =    47    REACHES    47
 REACH GROUP =    48 IRGNUM =    48    REACHES    48
 REACH GROUP =    49 IRGNUM =    49    REACHES    49
 REACH GROUP =    50 IRGNUM =    50    REACHES    50
 REACH GROUP =    51 IRGNUM =    51    REACHES    51
 REACH GROUP =    52 IRGNUM =    52    REACHES    52
 REACH GROUP =    53 IRGNUM =    53    REACHES    53
 REACH GROUP =    54 IRGNUM =    54    REACHES    54
 REACH GROUP =    55 IRGNUM =    55    REACHES    55
 REACH GROUP =    56 IRGNUM =    56    REACHES    56
 REACH GROUP =    57 IRGNUM =    57    REACHES    57
 REACH GROUP =    58 IRGNUM =    58    REACHES    58
 REACH GROUP =    59 IRGNUM =    59    REACHES    59
 REACH GROUP =    60 IRGNUM =    60    REACHES    60
 REACH GROUP =    61 IRGNUM =    61    REACHES    61
 REACH GROUP =    62 IRGNUM =    62    REACHES    62
 REACH GROUP =    63 IRGNUM =    63    REACHES    63
 REACH GROUP =    64 IRGNUM =    64    REACHES    64
 REACH GROUP =    65 IRGNUM =    65    REACHES    65
 REACH GROUP =    66 IRGNUM =    66    REACHES    66
 REACH GROUP =    67 IRGNUM =    67    REACHES    67
 REACH GROUP =    68 IRGNUM =    68    REACHES    68
 REACH GROUP =    69 IRGNUM =    69    REACHES    69
 REACH GROUP =    70 IRGNUM =    70    REACHES    70
 REACH GROUP =    71 IRGNUM =    71    REACHES    71
 REACH GROUP =    72 IRGNUM =    72    REACHES    72
 REACH GROUP =    73 IRGNUM =    73    REACHES    73
 REACH GROUP =    74 IRGNUM =    74    REACHES    74
 REACH GROUP =    75 IRGNUM =    75    REACHES    75
 REACH GROUP =    76 IRGNUM =    76    REACHES    76
 REACH GROUP =    77 IRGNUM =    77    REACHES    77
 REACH GROUP =    78 IRGNUM =    78    REACHES    78
 REACH GROUP =    79 IRGNUM =    79    REACHES    79
 REACH GROUP =    80 IRGNUM =    80    REACHES    80
 REACH GROUP =    81 IRGNUM =    81    REACHES    81
 REACH GROUP =    82 IRGNUM =    82    REACHES    82
 REACH GROUP =    83 IRGNUM =    83    REACHES    83
 REACH GROUP =    84 IRGNUM =    84    REACHES    84
 REACH GROUP =    85 IRGNUM =    85    REACHES    85
 REACH GROUP =    86 IRGNUM =    86    REACHES    86
 REACH GROUP =    87 IRGNUM =    87    REACHES    87
 REACH GROUP =    88 IRGNUM =    88    REACHES    88
 REACH GROUP =    89 IRGNUM =    89    REACHES    89
 REACH GROUP =    90 IRGNUM =    90    REACHES    90
 REACH GROUP =    91 IRGNUM =    91    REACHES    91
 REACH GROUP =    92 IRGNUM =    92    REACHES    92
 REACH GROUP =    93 IRGNUM =    93    REACHES    93
 REACH GROUP =    94 IRGNUM =    94    REACHES    94
 REACH GROUP =    95 IRGNUM =    95    REACHES    95
 REACH GROUP =    96 IRGNUM =    96    REACHES    96
 REACH GROUP =    97 IRGNUM =    97    REACHES    97
 REACH GROUP =    98 IRGNUM =    98    REACHES    98
 REACH GROUP =    99 IRGNUM =    99    REACHES    99
 REACH GROUP =   100 IRGNUM =   100    REACHES   100
 REACH GROUP =   101 IRGNUM =   101    REACHES   101
 REACH GROUP =   102 IRGNUM =   102    REACHES   102
 REACH GROUP =   103 IRGNUM =   103    REACHES   103
 REACH GROUP =   104 IRGNUM =   104    REACHES   104
 REACH GROUP =   105 IRGNUM =   105    REACHES   105
 REACH GROUP =   106 IRGNUM =   106    REACHES   106
 REACH GROUP =   107 IRGNUM =   107    REACHES   107
 REACH GROUP =   108 IRGNUM =   108    REACHES   108
 REACH GROUP =   109 IRGNUM =   109    REACHES   109
 REACH GROUP =   110 IRGNUM =   110    REACHES   110
 REACH GROUP =   111 IRGNUM =   111    REACHES   111
 REACH GROUP =   112 IRGNUM =   112    REACHES   112
 REACH GROUP =   113 IRGNUM =   113    REACHES   113
 REACH GROUP =   114 IRGNUM =   114    REACHES   114
 REACH GROUP =   115 IRGNUM =   115    REACHES   115
 REACH GROUP =   116 IRGNUM =   116    REACHES   116
 REACH GROUP =   117 IRGNUM =   117    REACHES   117
 REACH GROUP =   118 IRGNUM =   118    REACHES   118
 REACH GROUP =   119 IRGNUM =   119    REACHES   119
 REACH GROUP =   120 IRGNUM =   120    REACHES   120
 REACH GROUP =   121 IRGNUM =   121    REACHES   121
1
                            STRESS PERIOD NO.    1, LENGTH =   3600.000    
                            -----------------------------------------------

                              NUMBER OF TIME STEPS =    30

                               MULTIPLIER FOR DELT =     1.000

                            INITIAL TIME STEP SIZE =   120.0000    

 ...READING SWR1 PROCESS DATASET 5

 ...READING SWR1 PROCESS DATASET 6


  SUMMARY OF SWR REACH BOUNDARY CONDITIONS
        IRG   INACTIVE   CONSTANT     ACTIVE
 ---------- ---------- ---------- ----------
          1          0          0          1
          2          0          0          1
          3          0          0          1
          4          0          0          1
          5          0          0          1
          6          0          0          1
          7          0          0          1
          8          0          0          1
          9          0          0          1
         10          0          0          1
         11          0          0          1
         12          0          0          1
         13          0          0          1
         14          0          0          1
         15          0          0          1
         16          0          0          1
         17          0          0          1
         18          0          0          1
         19          0          0          1
         20          0          0          1
         21          0          0          1
         22          0          0          1
         23          0          0          1
         24          0          0          1
         25          0          0          1
         26          0          0          1
         27          0          0          1
         28          0          0          1
         29          0          0          1
         30          0          0          1
         31          0          0          1
         32          0          0          1
         33          0          0          1
         34          0          0          1
         35          0          0          1
         36          0          0          1
         37          0          0          1
         38          0          0          1
         39          0          0          1
         40          0          0          1
         41          0          0          1
         42          0          0          1
         43          0          0          1
         44          0          0          1
         45          0          0          1
         46          0          0          1
         47          0          0          1
         48          0          0          1
         49          0          0          1
         50          0          0          1
         51          0          0          1
         52          0          0          1
         53          0          0          1
         54          0          0          1
         55          0          0          1
         56          0          0          1
         57          0          0          1
         58          0          0          1
         59          0          0          1
         60          0          0          1
         61          0          0          1
         62          0          0          1
         63          0          0          1
         64          0          0          1
         65          0          0          1
         66          0          0          1
         67          0          0          1
         68          0          0          1
         69          0          0          1
         70          0          0          1
         71          0          0          1
         72          0          0          1
         73          0          0          1
         74          0          0          1
         75          0          0          1
         76          0          0          1
         77          0          0          1
         78          0          0          1
         79          0          0          1
         80          0          0          1
         81          0          0          1
         82          0          0          1
         83          0          0          1
         84          0          0          1
         85          0          0          1
         86          0          0          1
         87          0          0          1
         88          0          0          1
         89          0          0          1
         90          0          0          1
         91          0          0          1
         92          0          0          1
         93          0          0          1
         94          0          0          1
         95          0          0          1
         96          0          0          1
         97          0          0          1
         98          0          0          1
         99          0          0          1
        100          0          0          1
        101          0          0          1
        102          0          0          1
        103          0          0          1
        104          0          0          1
        105          0          0          1
        106          0          0          1
        107          0          0          1
        108          0          0          1
        109          0          0          1
        110          0          0          1
        111          0          1          0
        112          0          1          0
        113          0          1          0
        114          0          1          0
        115          0          1          0
        116          0          1          0
        117          0          1          0
        118          0          1          0
        119          0          1          0
        120          0          1          0
        121          0          1          0


                         CONSTANT STAGE/INACTIVE REACH GROUPS
 ------------------------------------------------------------------------------------------
 REACH GROUP =   111 IS DEFINED AS A CONSTANT STAGE ELEMENT
 REACH GROUP =   112 IS DEFINED AS A CONSTANT STAGE ELEMENT
 REACH GROUP =   113 IS DEFINED AS A CONSTANT STAGE ELEMENT
 REACH GROUP =   114 IS DEFINED AS A CONSTANT STAGE ELEMENT
 REACH GROUP =   115 IS DEFINED AS A CONSTANT STAGE ELEMENT
 REACH GROUP =   116 IS DEFINED AS A CONSTANT STAGE ELEMENT
 REACH GROUP =   117 IS DEFINED AS A CONSTANT STAGE ELEMENT
 REACH GROUP =   118 IS DEFINED AS A CONSTANT STAGE ELEMENT
 REACH GROUP =   119 IS DEFINED AS A CONSTANT STAGE ELEMENT
 REACH GROUP =   120 IS DEFINED AS A CONSTANT STAGE ELEMENT
 REACH GROUP =   121 IS DEFINED AS A CONSTANT STAGE ELEMENT

 ...READING SWR1 PROCESS DATASET 7B



                   2D RAINFALL DATA
 READING ON UNIT   61 WITH FORMAT: (11E12.4)           

           1          2          3          4          5          6          7          8          9         10         11
 .........................................................................................................................
   1    0.00       0.00       0.00       0.00       0.00       0.00       0.00       0.00       0.00       0.00       0.00    
   2    0.00       0.00       0.00       0.00       0.00       0.00       0.00       0.00       0.00       0.00       0.00    
   3    0.00       0.00       0.00       0.00       0.00       0.00       0.00       0.00       0.00       0.00       0.00    
   4    0.00       0.00       0.00       0.00      1.991E-11  1.991E-11  1.991E-11   0.00       0.00       0.00       0.00    
   5    0.00       0.00       0.00       0.00      1.991E-11  1.991E-11  1.991E-11   0.00       0.00       0.00       0.00    
   6    0.00       0.00       0.00      1.991E-11  1.991E-11  1.991E-11  1.991E-11   0.00       0.00       0.00       0.00    
   7    0.00       0.00       0.00       0.00      1.991E-11  1.991E-11  1.991E-11   0.00       0.00       0.00       0.00    
   8    0.00       0.00       0.00       0.00      1.991E-11  1.991E-11  1.991E-11   0.00       0.00       0.00       0.00    
   9    0.00       0.00       0.00       0.00       0.00       0.00       0.00       0.00       0.00       0.00       0.00    
  10    0.00       0.00       0.00       0.00       0.00       0.00       0.00       0.00       0.00       0.00       0.00    
  11    0.00       0.00       0.00       0.00       0.00       0.00       0.00       0.00       0.00       0.00       0.00    

 ...READING SWR1 PROCESS DATASET 8B

      2D EVAPORATION DATA =   0.00000    

 ...READING SWR1 PROCESS DATASET 9B



             2D LATERAL INFLOW DATA
 READING ON UNIT   61 WITH FORMAT: (11E12.4)           

           1          2          3          4          5          6          7          8          9         10         11
 .........................................................................................................................
   1   4.977E-06   0.00       0.00       0.00       0.00       0.00       0.00       0.00       0.00       0.00       0.00    
   2   4.977E-06   0.00       0.00       0.00       0.00       0.00       0.00       0.00       0.00       0.00       0.00    
   3   4.977E-06   0.00       0.00       0.00       0.00       0.00       0.00       0.00       0.00       0.00       0.00    
   4   4.977E-06   0.00       0.00       0.00       0.00       0.00       0.00       0.00       0.00       0.00       0.00    
   5   4.977E-06   0.00       0.00       0.00       0.00       0.00       0.00       0.00       0.00       0.00       0.00    
   6   4.977E-06   0.00       0.00       0.00       0.00       0.00       0.00       0.00       0.00       0.00       0.00    
   7   4.977E-06   0.00       0.00       0.00       0.00       0.00       0.00       0.00       0.00       0.00       0.00    
   8   4.977E-06   0.00       0.00       0.00       0.00       0.00       0.00       0.00       0.00       0.00       0.00    
   9   4.977E-06   0.00       0.00       0.00       0.00       0.00       0.00       0.00       0.00       0.00       0.00    
  10   4.977E-06   0.00       0.00       0.00       0.00       0.00       0.00       0.00       0.00       0.00       0.00    
  11   4.977E-06   0.00       0.00       0.00       0.00       0.00       0.00       0.00       0.00       0.00       0.00    

 SURFACE-WATER ROUTING BOUNDARY DATA 
      REACH    ISWRBND BND TYPE       
 ------------------------------------
          1          1 ACTIVE         
          2          1 ACTIVE         
          3          1 ACTIVE         
          4          1 ACTIVE         
          5          1 ACTIVE         
          6          1 ACTIVE         
          7          1 ACTIVE         
          8          1 ACTIVE         
          9          1 ACTIVE         
         10          1 ACTIVE         
         11          1 ACTIVE         
         12          1 ACTIVE         
         13          1 ACTIVE         
         14          1 ACTIVE         
         15          1 ACTIVE         
         16          1 ACTIVE         
         17          1 ACTIVE         
         18          1 ACTIVE         
         19          1 ACTIVE         
         20          1 ACTIVE         
         21          1 ACTIVE         
         22          1 ACTIVE         
         23          1 ACTIVE         
         24          1 ACTIVE         
         25          1 ACTIVE         
         26          1 ACTIVE         
         27          1 ACTIVE         
         28          1 ACTIVE         
         29          1 ACTIVE         
         30          1 ACTIVE         
         31          1 ACTIVE         
         32          1 ACTIVE         
         33          1 ACTIVE         
         34          1 ACTIVE         
         35          1 ACTIVE         
         36          1 ACTIVE         
         37          1 ACTIVE         
         38          1 ACTIVE         
         39          1 ACTIVE         
         40          1 ACTIVE         
         41          1 ACTIVE         
         42          1 ACTIVE         
         43          1 ACTIVE         
         44          1 ACTIVE         
         45          1 ACTIVE         
         46          1 ACTIVE         
         47          1 ACTIVE         
         48          1 ACTIVE         
         49          1 ACTIVE         
         50          1 ACTIVE         
         51          1 ACTIVE         
         52          1 ACTIVE         
         53          1 ACTIVE         
         54          1 ACTIVE         
         55          1 ACTIVE         
         56          1 ACTIVE         
         57          1 ACTIVE         
         58          1 ACTIVE         
         59          1 ACTIVE         
         60          1 ACTIVE         
         61          1 ACTIVE         
         62          1 ACTIVE         
         63          1 ACTIVE         
         64          1 ACTIVE         
         65          1 ACTIVE         
         66          1 ACTIVE         
         67          1 ACTIVE         
         68          1 ACTIVE         
         69          1 ACTIVE         
         70          1 ACTIVE         
         71          1 ACTIVE         
         72          1 ACTIVE         
         73          1 ACTIVE         
         74          1 ACTIVE         
         75          1 ACTIVE         
         76          1 ACTIVE         
         77          1 ACTIVE         
         78          1 ACTIVE         
         79          1 ACTIVE         
         80          1 ACTIVE         
         81          1 ACTIVE         
         82          1 ACTIVE         
         83          1 ACTIVE         
         84          1 ACTIVE         
         85          1 ACTIVE         
         86          1 ACTIVE         
         87          1 ACTIVE         
         88          1 ACTIVE         
         89          1 ACTIVE         
         90          1 ACTIVE         
         91          1 ACTIVE         
         92          1 ACTIVE         
         93          1 ACTIVE         
         94          1 ACTIVE         
         95          1 ACTIVE         
         96          1 ACTIVE         
         97          1 ACTIVE         
         98          1 ACTIVE         
         99          1 ACTIVE         
        100          1 ACTIVE         
        101          1 ACTIVE         
        102          1 ACTIVE         
        103          1 ACTIVE         
        104          1 ACTIVE         
        105          1 ACTIVE         
        106          1 ACTIVE         
        107          1 ACTIVE         
        108          1 ACTIVE         
        109          1 ACTIVE         
        110          1 ACTIVE         
        111         -1 CONSTANT STAGE 
        112         -1 CONSTANT STAGE 
        113         -1 CONSTANT STAGE 
        114         -1 CONSTANT STAGE 
        115         -1 CONSTANT STAGE 
        116         -1 CONSTANT STAGE 
        117         -1 CONSTANT STAGE 
        118         -1 CONSTANT STAGE 
        119         -1 CONSTANT STAGE 
        120         -1 CONSTANT STAGE 
        121         -1 CONSTANT STAGE 

 ...READING SWR1 PROCESS DATASET 10

 ...READING SWR1 PROCESS DATASET 11


 SURFACE-WATER ROUTING GENERIC GEOMETRY DATA FOR STRESS PERIOD         1

   GEO ITEM    IGEONUM   IGEOTYPE    IGCNDOP    NGEOPTS   GMANNING     GWIDTH     GBELEV    GSSLOPE   CONDUCT.   LEAKANCE     GCNDLN    GETEXTD
 ----------------------------------------------------------------------------------------------------------------------------------------------
          1          1          5          0          1  0.300                                        0.00                             1.00    


 REACH RATING CURVE DATA FOR STRESS PERIOD
 ------------------------------------------------------------------------------------------

 REACH   =     1
 LAYSTR  =     1
 LAYEND  =     1
          N   ELEVATION [L]  XSECTAREA [L2]     VOLUME [L3] WET. PERIM. [L]   TOP WIDTH [L] SURF. AREA [L2]
 ---------- --------------- --------------- --------------- --------------- --------------- ---------------
          1    1.050000        0.000000        0.000000        500.0000        500.0000        250000.0    
          2    1.050001       0.5000000E-03   0.2500000        500.0000        500.0000        250000.0    
          3    1.550001        250.0005        125000.3        500.0000        500.0000        250000.0    
          4    2.050001        500.0006        250000.3        500.0000        500.0000        250000.0    
          5    2.550001        750.0007        375000.3        500.0000        500.0000        250000.0    
          6    3.050001        1000.001        500000.4        500.0000        500.0000        250000.0    
          7    3.550001        1250.001        625000.4        500.0000        500.0000        250000.0    
          8    4.050002        1500.001        750000.4        500.0000        500.0000        250000.0    
          9    4.550002        1750.001        875000.4        500.0000        500.0000        250000.0    
         10    5.050002        2000.001        1000000.        500.0000        500.0000        250000.0    
         11    5.550002        2250.001        1125000.        500.0000        500.0000        250000.0    
         12    6.050000        2500.000        1250000.        500.0000        500.0000        250000.0    
         13    6.050001        2500.001        1250000.        500.0000        500.0000        250000.0    
         14    16.05000        7500.000        3750000.        500.0000        500.0000        250000.0    

 REACH   =     2
 LAYSTR  =     1
 LAYEND  =     1
          N   ELEVATION [L]  XSECTAREA [L2]     VOLUME [L3] WET. PERIM. [L]   TOP WIDTH [L] SURF. AREA [L2]
 ---------- --------------- --------------- --------------- --------------- --------------- ---------------
          1    1.050000        0.000000        0.000000        500.0000        500.0000        250000.0    
          2    1.050001       0.5000000E-03   0.2500000        500.0000        500.0000        250000.0    
          3    1.550001        250.0005        125000.3        500.0000        500.0000        250000.0    
          4    2.050001        500.0006        250000.3        500.0000        500.0000        250000.0    
          5    2.550001        750.0007        375000.3        500.0000        500.0000        250000.0    
          6    3.050001        1000.001        500000.4        500.0000        500.0000        250000.0    
          7    3.550001        1250.001        625000.4        500.0000        500.0000        250000.0    
          8    4.050002        1500.001        750000.4        500.0000        500.0000        250000.0    
          9    4.550002        1750.001        875000.4        500.0000        500.0000        250000.0    
         10    5.050002        2000.001        1000000.        500.0000        500.0000        250000.0    
         11    5.550002        2250.001        1125000.        500.0000        500.0000        250000.0    
         12    6.050000        2500.000        1250000.        500.0000        500.0000        250000.0    
         13    6.050001        2500.001        1250000.        500.0000        500.0000        250000.0    
         14    16.05000        7500.000        3750000.        500.0000        500.0000        250000.0    

 REACH   =     3
 LAYSTR  =     1
 LAYEND  =     1
          N   ELEVATION [L]  XSECTAREA [L2]     VOLUME [L3] WET. PERIM. [L]   TOP WIDTH [L] SURF. AREA [L2]
 ---------- --------------- --------------- --------------- --------------- --------------- ---------------
          1    1.050000        0.000000        0.000000        500.0000        500.0000        250000.0    
          2    1.050001       0.5000000E-03   0.2500000        500.0000        500.0000        250000.0    
          3    1.550001        250.0005        125000.3        500.0000        500.0000        250000.0    
          4    2.050001        500.0006        250000.3        500.0000        500.0000        250000.0    
          5    2.550001        750.0007        375000.3        500.0000        500.0000        250000.0    
          6    3.050001        1000.001        500000.4        500.0000        500.0000        250000.0    
          7    3.550001        1250.001        625000.4        500.0000        500.0000        250000.0    
          8    4.050002        1500.001        750000.4        500.0000        500.0000        250000.0    
          9    4.550002        1750.001        875000.4        500.0000        500.0000        250000.0    
         10    5.050002        2000.001        1000000.        500.0000        500.0000        250000.0    
         11    5.550002        2250.001        1125000.        500.0000        500.0000        250000.0    
         12    6.050000        2500.000        1250000.        500.0000        500.0000        250000.0    
         13    6.050001        2500.001        1250000.        500.0000        500.0000        250000.0    
         14    16.05000        7500.000        3750000.        500.0000        500.0000        250000.0    

 REACH   =     4
 LAYSTR  =     1
 LAYEND  =     1
          N   ELEVATION [L]  XSECTAREA [L2]     VOLUME [L3] WET. PERIM. [L]   TOP WIDTH [L] SURF. AREA [L2]
 ---------- --------------- --------------- --------------- --------------- --------------- ---------------
          1    1.050000        0.000000        0.000000        500.0000        500.0000        250000.0    
          2    1.050001       0.5000000E-03   0.2500000        500.0000        500.0000        250000.0    
          3    1.550001        250.0005        125000.3        500.0000        500.0000        250000.0    
          4    2.050001        500.0006        250000.3        500.0000        500.0000        250000.0    
          5    2.550001        750.0007        375000.3        500.0000        500.0000        250000.0    
          6    3.050001        1000.001        500000.4        500.0000        500.0000        250000.0    
          7    3.550001        1250.001        625000.4        500.0000        500.0000        250000.0    
          8    4.050002        1500.001        750000.4        500.0000        500.0000        250000.0    
          9    4.550002        1750.001        875000.4        500.0000        500.0000        250000.0    
         10    5.050002        2000.001        1000000.        500.0000        500.0000        250000.0    
         11    5.550002        2250.001        1125000.        500.0000        500.0000        250000.0    
         12    6.050000        2500.000        1250000.        500.0000        500.0000        250000.0    
         13    6.050001        2500.001        1250000.        500.0000        500.0000        250000.0    
         14    16.05000        7500.000        3750000.        500.0000        500.0000        250000.0    

 REACH   =     5
 LAYSTR  =     1
 LAYEND  =     1
          N   ELEVATION [L]  XSECTAREA [L2]     VOLUME [L3] WET. PERIM. [L]   TOP WIDTH [L] SURF. AREA [L2]
 ---------- --------------- --------------- --------------- --------------- --------------- ---------------
          1    1.050000        0.000000        0.000000        500.0000        500.0000        250000.0    
          2    1.050001       0.5000000E-03   0.2500000        500.0000        500.0000        250000.0    
          3    1.550001        250.0005        125000.3        500.0000        500.0000        250000.0    
          4    2.050001        500.0006        250000.3        500.0000        500.0000        250000.0    
          5    2.550001        750.0007        375000.3        500.0000        500.0000        250000.0    
          6    3.050001        1000.001        500000.4        500.0000        500.0000        250000.0    
          7    3.550001        1250.001        625000.4        500.0000        500.0000        250000.0    
          8    4.050002        1500.001        750000.4        500.0000        500.0000        250000.0    
          9    4.550002        1750.001        875000.4        500.0000        500.0000        250000.0    
         10    5.050002        2000.001        1000000.        500.0000        500.0000        250000.0    
         11    5.550002        2250.001        1125000.        500.0000        500.0000        250000.0    
         12    6.050000        2500.000        1250000.        500.0000        500.0000        250000.0    
         13    6.050001        2500.001        1250000.        500.0000        500.0000        250000.0    
         14    16.05000        7500.000        3750000.        500.0000        500.0000        250000.0    

 REACH   =     6
 LAYSTR  =     1
 LAYEND  =     1
          N   ELEVATION [L]  XSECTAREA [L2]     VOLUME [L3] WET. PERIM. [L]   TOP WIDTH [L] SURF. AREA [L2]
 ---------- --------------- --------------- --------------- --------------- --------------- ---------------
          1    1.050000        0.000000        0.000000        500.0000        500.0000        250000.0    
          2    1.050001       0.5000000E-03   0.2500000        500.0000        500.0000        250000.0    
          3    1.550001        250.0005        125000.3        500.0000        500.0000        250000.0    
          4    2.050001        500.0006        250000.3        500.0000        500.0000        250000.0    
          5    2.550001        750.0007        375000.3        500.0000        500.0000        250000.0    
          6    3.050001        1000.001        500000.4        500.0000        500.0000        250000.0    
          7    3.550001        1250.001        625000.4        500.0000        500.0000        250000.0    
          8    4.050002        1500.001        750000.4        500.0000        500.0000        250000.0    
          9    4.550002        1750.001        875000.4        500.0000        500.0000        250000.0    
         10    5.050002        2000.001        1000000.        500.0000        500.0000        250000.0    
         11    5.550002        2250.001        1125000.        500.0000        500.0000        250000.0    
         12    6.050000        2500.000        1250000.        500.0000        500.0000        250000.0    
         13    6.050001        2500.001        1250000.        500.0000        500.0000        250000.0    
         14    16.05000        7500.000        3750000.        500.0000        500.0000        250000.0    

 REACH   =     7
 LAYSTR  =     1
 LAYEND  =     1
          N   ELEVATION [L]  XSECTAREA [L2]     VOLUME [L3] WET. PERIM. [L]   TOP WIDTH [L] SURF. AREA [L2]
 ---------- --------------- --------------- --------------- --------------- --------------- ---------------
          1    1.050000        0.000000        0.000000        500.0000        500.0000        250000.0    
          2    1.050001       0.5000000E-03   0.2500000        500.0000        500.0000        250000.0    
          3    1.550001        250.0005        125000.3        500.0000        500.0000        250000.0    
          4    2.050001        500.0006        250000.3        500.0000        500.0000        250000.0    
          5    2.550001        750.0007        375000.3        500.0000        500.0000        250000.0    
          6    3.050001        1000.001        500000.4        500.0000        500.0000        250000.0    
          7    3.550001        1250.001        625000.4        500.0000        500.0000        250000.0    
          8    4.050002        1500.001        750000.4        500.0000        500.0000        250000.0    
          9    4.550002        1750.001        875000.4        500.0000        500.0000        250000.0    
         10    5.050002        2000.001        1000000.        500.0000        500.0000        250000.0    
         11    5.550002        2250.001        1125000.        500.0000        500.0000        250000.0    
         12    6.050000        2500.000        1250000.        500.0000        500.0000        250000.0    
         13    6.050001        2500.001        1250000.        500.0000        500.0000        250000.0    
         14    16.05000        7500.000        3750000.        500.0000        500.0000        250000.0    

 REACH   =     8
 LAYSTR  =     1
 LAYEND  =     1
          N   ELEVATION [L]  XSECTAREA [L2]     VOLUME [L3] WET. PERIM. [L]   TOP WIDTH [L] SURF. AREA [L2]
 ---------- --------------- --------------- --------------- --------------- --------------- ---------------
          1    1.050000        0.000000        0.000000        500.0000        500.0000        250000.0    
          2    1.050001       0.5000000E-03   0.2500000        500.0000        500.0000        250000.0    
          3    1.550001        250.0005        125000.3        500.0000        500.0000        250000.0    
          4    2.050001        500.0006        250000.3        500.0000        500.0000        250000.0    
          5    2.550001        750.0007        375000.3        500.0000        500.0000        250000.0    
          6    3.050001        1000.001        500000.4        500.0000        500.0000        250000.0    
          7    3.550001        1250.001        625000.4        500.0000        500.0000        250000.0    
          8    4.050002        1500.001        750000.4        500.0000        500.0000        250000.0    
          9    4.550002        1750.001        875000.4        500.0000        500.0000        250000.0    
         10    5.050002        2000.001        1000000.        500.0000        500.0000        250000.0    
         11    5.550002        2250.001        1125000.        500.0000        500.0000        250000.0    
         12    6.050000        2500.000        1250000.        500.0000        500.0000        250000.0    
         13    6.050001        2500.001        1250000.        500.0000        500.0000        250000.0    
         14    16.05000        7500.000        3750000.        500.0000        500.0000        250000.0    

 REACH   =     9
 LAYSTR  =     1
 LAYEND  =     1
          N   ELEVATION [L]  XSECTAREA [L2]     VOLUME [L3] WET. PERIM. [L]   TOP WIDTH [L] SURF. AREA [L2]
 ---------- --------------- --------------- --------------- --------------- --------------- ---------------
          1    1.050000        0.000000        0.000000        500.0000        500.0000        250000.0    
          2    1.050001       0.5000000E-03   0.2500000        500.0000        500.0000        250000.0    
          3    1.550001        250.0005        125000.3        500.0000        500.0000        250000.0    
          4    2.050001        500.0006        250000.3        500.0000        500.0000        250000.0    
          5    2.550001        750.0007        375000.3        500.0000        500.0000        250000.0    
          6    3.050001        1000.001        500000.4        500.0000        500.0000        250000.0    
          7    3.550001        1250.001        625000.4        500.0000        500.0000        250000.0    
          8    4.050002        1500.001        750000.4        500.0000        500.0000        250000.0    
          9    4.550002        1750.001        875000.4        500.0000        500.0000        250000.0    
         10    5.050002        2000.001        1000000.        500.0000        500.0000        250000.0    
         11    5.550002        2250.001        1125000.        500.0000        500.0000        250000.0    
         12    6.050000        2500.000        1250000.        500.0000        500.0000        250000.0    
         13    6.050001        2500.001        1250000.        500.0000        500.0000        250000.0    
         14    16.05000        7500.000        3750000.        500.0000        500.0000        250000.0    

 REACH   =    10
 LAYSTR  =     1
 LAYEND  =     1
          N   ELEVATION [L]  XSECTAREA [L2]     VOLUME [L3] WET. PERIM. [L]   TOP WIDTH [L] SURF. AREA [L2]
 ---------- --------------- --------------- --------------- --------------- --------------- ---------------
          1    1.050000        0.000000        0.000000        500.0000        500.0000        250000.0    
          2    1.050001       0.5000000E-03   0.2500000        500.0000        500.0000        250000.0    
          3    1.550001        250.0005        125000.3        500.0000        500.0000        250000.0    
          4    2.050001        500.0006        250000.3        500.0000        500.0000        250000.0    
          5    2.550001        750.0007        375000.3        500.0000        500.0000        250000.0    
          6    3.050001        1000.001        500000.4        500.0000        500.0000        250000.0    
          7    3.550001        1250.001        625000.4        500.0000        500.0000        250000.0    
          8    4.050002        1500.001        750000.4        500.0000        500.0000        250000.0    
          9    4.550002        1750.001        875000.4        500.0000        500.0000        250000.0    
         10    5.050002        2000.001        1000000.        500.0000        500.0000        250000.0    
         11    5.550002        2250.001        1125000.        500.0000        500.0000        250000.0    
         12    6.050000        2500.000        1250000.        500.0000        500.0000        250000.0    
         13    6.050001        2500.001        1250000.        500.0000        500.0000        250000.0    
         14    16.05000        7500.000        3750000.        500.0000        500.0000        250000.0    

 REACH   =    11
 LAYSTR  =     1
 LAYEND  =     1
          N   ELEVATION [L]  XSECTAREA [L2]     VOLUME [L3] WET. PERIM. [L]   TOP WIDTH [L] SURF. AREA [L2]
 ---------- --------------- --------------- --------------- --------------- --------------- ---------------
          1    1.050000        0.000000        0.000000        500.0000        500.0000        250000.0    
          2    1.050001       0.5000000E-03   0.2500000        500.0000        500.0000        250000.0    
          3    1.550001        250.0005        125000.3        500.0000        500.0000        250000.0    
          4    2.050001        500.0006        250000.3        500.0000        500.0000        250000.0    
          5    2.550001        750.0007        375000.3        500.0000        500.0000        250000.0    
          6    3.050001        1000.001        500000.4        500.0000        500.0000        250000.0    
          7    3.550001        1250.001        625000.4        500.0000        500.0000        250000.0    
          8    4.050002        1500.001        750000.4        500.0000        500.0000        250000.0    
          9    4.550002        1750.001        875000.4        500.0000        500.0000        250000.0    
         10    5.050002        2000.001        1000000.        500.0000        500.0000        250000.0    
         11    5.550002        2250.001        1125000.        500.0000        500.0000        250000.0    
         12    6.050000        2500.000        1250000.        500.0000        500.0000        250000.0    
         13    6.050001        2500.001        1250000.        500.0000        500.0000        250000.0    
         14    16.05000        7500.000        3750000.        500.0000        500.0000        250000.0    

 REACH   =    12
 LAYSTR  =     1
 LAYEND  =     1
          N   ELEVATION [L]  XSECTAREA [L2]     VOLUME [L3] WET. PERIM. [L]   TOP WIDTH [L] SURF. AREA [L2]
 ---------- --------------- --------------- --------------- --------------- --------------- ---------------
          1   0.9500000        0.000000        0.000000        500.0000        500.0000        250000.0    
          2   0.9500010       0.5000000E-03   0.2500000        500.0000        500.0000        250000.0    
          3    1.450001        250.0005        125000.3        500.0000        500.0000        250000.0    
          4    1.950001        500.0006        250000.3        500.0000        500.0000        250000.0    
          5    2.450001        750.0007        375000.3        500.0000        500.0000        250000.0    
          6    2.950001        1000.001        500000.4        500.0000        500.0000        250000.0    
          7    3.450001        1250.001        625000.4        500.0000        500.0000        250000.0    
          8    3.950002        1500.001        750000.4        500.0000        500.0000        250000.0    
          9    4.450002        1750.001        875000.4        500.0000        500.0000        250000.0    
         10    4.950002        2000.001        1000000.        500.0000        500.0000        250000.0    
         11    5.450002        2250.001        1125000.        500.0000        500.0000        250000.0    
         12    5.950000        2500.000        1250000.        500.0000        500.0000        250000.0    
         13    5.950001        2500.001        1250000.        500.0000        500.0000        250000.0    
         14    15.95000        7500.000        3750000.        500.0000        500.0000        250000.0    

 REACH   =    13
 LAYSTR  =     1
 LAYEND  =     1
          N   ELEVATION [L]  XSECTAREA [L2]     VOLUME [L3] WET. PERIM. [L]   TOP WIDTH [L] SURF. AREA [L2]
 ---------- --------------- --------------- --------------- --------------- --------------- ---------------
          1   0.9500000        0.000000        0.000000        500.0000        500.0000        250000.0    
          2   0.9500010       0.5000000E-03   0.2500000        500.0000        500.0000        250000.0    
          3    1.450001        250.0005        125000.3        500.0000        500.0000        250000.0    
          4    1.950001        500.0006        250000.3        500.0000        500.0000        250000.0    
          5    2.450001        750.0007        375000.3        500.0000        500.0000        250000.0    
          6    2.950001        1000.001        500000.4        500.0000        500.0000        250000.0    
          7    3.450001        1250.001        625000.4        500.0000        500.0000        250000.0    
          8    3.950002        1500.001        750000.4        500.0000        500.0000        250000.0    
          9    4.450002        1750.001        875000.4        500.0000        500.0000        250000.0    
         10    4.950002        2000.001        1000000.        500.0000        500.0000        250000.0    
         11    5.450002        2250.001        1125000.        500.0000        500.0000        250000.0    
         12    5.950000        2500.000        1250000.        500.0000        500.0000        250000.0    
         13    5.950001        2500.001        1250000.        500.0000        500.0000        250000.0    
         14    15.95000        7500.000        3750000.        500.0000        500.0000        250000.0    

 REACH   =    14
 LAYSTR  =     1
 LAYEND  =     1
          N   ELEVATION [L]  XSECTAREA [L2]     VOLUME [L3] WET. PERIM. [L]   TOP WIDTH [L] SURF. AREA [L2]
 ---------- --------------- --------------- --------------- --------------- --------------- ---------------
          1   0.9500000        0.000000        0.000000        500.0000        500.0000        250000.0    
          2   0.9500010       0.5000000E-03   0.2500000        500.0000        500.0000        250000.0    
          3    1.450001        250.0005        125000.3        500.0000        500.0000        250000.0    
          4    1.950001        500.0006        250000.3        500.0000        500.0000        250000.0    
          5    2.450001        750.0007        375000.3        500.0000        500.0000        250000.0    
          6    2.950001        1000.001        500000.4        500.0000        500.0000        250000.0    
          7    3.450001        1250.001        625000.4        500.0000        500.0000        250000.0    
          8    3.950002        1500.001        750000.4        500.0000        500.0000        250000.0    
          9    4.450002        1750.001        875000.4        500.0000        500.0000        250000.0    
         10    4.950002        2000.001        1000000.        500.0000        500.0000        250000.0    
         11    5.450002        2250.001        1125000.        500.0000        500.0000        250000.0    
         12    5.950000        2500.000        1250000.        500.0000        500.0000        250000.0    
         13    5.950001        2500.001        1250000.        500.0000        500.0000        250000.0    
         14    15.95000        7500.000        3750000.        500.0000        500.0000        250000.0    

 REACH   =    15
 LAYSTR  =     1
 LAYEND  =     1
          N   ELEVATION [L]  XSECTAREA [L2]     VOLUME [L3] WET. PERIM. [L]   TOP WIDTH [L] SURF. AREA [L2]
 ---------- --------------- --------------- --------------- --------------- --------------- ---------------
          1   0.9500000        0.000000        0.000000        500.0000        500.0000        250000.0    
          2   0.9500010       0.5000000E-03   0.2500000        500.0000        500.0000        250000.0    
          3    1.450001        250.0005        125000.3        500.0000        500.0000        250000.0    
          4    1.950001        500.0006        250000.3        500.0000        500.0000        250000.0    
          5    2.450001        750.0007        375000.3        500.0000        500.0000        250000.0    
          6    2.950001        1000.001        500000.4        500.0000        500.0000        250000.0    
          7    3.450001        1250.001        625000.4        500.0000        500.0000        250000.0    
          8    3.950002        1500.001        750000.4        500.0000        500.0000        250000.0    
          9    4.450002        1750.001        875000.4        500.0000        500.0000        250000.0    
         10    4.950002        2000.001        1000000.        500.0000        500.0000        250000.0    
         11    5.450002        2250.001        1125000.        500.0000        500.0000        250000.0    
         12    5.950000        2500.000        1250000.        500.0000        500.0000        250000.0    
         13    5.950001        2500.001        1250000.        500.0000        500.0000        250000.0    
         14    15.95000        7500.000        3750000.        500.0000        500.0000        250000.0    

 REACH   =    16
 LAYSTR  =     1
 LAYEND  =     1
          N   ELEVATION [L]  XSECTAREA [L2]     VOLUME [L3] WET. PERIM. [L]   TOP WIDTH [L] SURF. AREA [L2]
 ---------- --------------- --------------- --------------- --------------- --------------- ---------------
          1   0.9500000        0.000000        0.000000        500.0000        500.0000        250000.0    
          2   0.9500010       0.5000000E-03   0.2500000        500.0000        500.0000        250000.0    
          3    1.450001        250.0005        125000.3        500.0000        500.0000        250000.0    
          4    1.950001        500.0006        250000.3        500.0000        500.0000        250000.0    
          5    2.450001        750.0007        375000.3        500.0000        500.0000        250000.0    
          6    2.950001        1000.001        500000.4        500.0000        500.0000        250000.0    
          7    3.450001        1250.001        625000.4        500.0000        500.0000        250000.0    
          8    3.950002        1500.001        750000.4        500.0000        500.0000        250000.0    
          9    4.450002        1750.001        875000.4        500.0000        500.0000        250000.0    
         10    4.950002        2000.001        1000000.        500.0000        500.0000        250000.0    
         11    5.450002        2250.001        1125000.        500.0000        500.0000        250000.0    
         12    5.950000        2500.000        1250000.        500.0000        500.0000        250000.0    
         13    5.950001        2500.001        1250000.        500.0000        500.0000        250000.0    
         14    15.95000        7500.000        3750000.        500.0000        500.0000        250000.0    

 REACH   =    17
 LAYSTR  =     1
 LAYEND  =     1
          N   ELEVATION [L]  XSECTAREA [L2]     VOLUME [L3] WET. PERIM. [L]   TOP WIDTH [L] SURF. AREA [L2]
 ---------- --------------- --------------- --------------- --------------- --------------- ---------------
          1   0.9500000        0.000000        0.000000        500.0000        500.0000        250000.0    
          2   0.9500010       0.5000000E-03   0.2500000        500.0000        500.0000        250000.0    
          3    1.450001        250.0005        125000.3        500.0000        500.0000        250000.0    
          4    1.950001        500.0006        250000.3        500.0000        500.0000        250000.0    
          5    2.450001        750.0007        375000.3        500.0000        500.0000        250000.0    
          6    2.950001        1000.001        500000.4        500.0000        500.0000        250000.0    
          7    3.450001        1250.001        625000.4        500.0000        500.0000        250000.0    
          8    3.950002        1500.001        750000.4        500.0000        500.0000        250000.0    
          9    4.450002        1750.001        875000.4        500.0000        500.0000        250000.0    
         10    4.950002        2000.001        1000000.        500.0000        500.0000        250000.0    
         11    5.450002        2250.001        1125000.        500.0000        500.0000        250000.0    
         12    5.950000        2500.000        1250000.        500.0000        500.0000        250000.0    
         13    5.950001        2500.001        1250000.        500.0000        500.0000        250000.0    
         14    15.95000        7500.000        3750000.        500.0000        500.0000        250000.0    

 REACH   =    18
 LAYSTR  =     1
 LAYEND  =     1
          N   ELEVATION [L]  XSECTAREA [L2]     VOLUME [L3] WET. PERIM. [L]   TOP WIDTH [L] SURF. AREA [L2]
 ---------- --------------- --------------- --------------- --------------- --------------- ---------------
          1   0.9500000        0.000000        0.000000        500.0000        500.0000        250000.0    
          2   0.9500010       0.5000000E-03   0.2500000        500.0000        500.0000        250000.0    
          3    1.450001        250.0005        125000.3        500.0000        500.0000        250000.0    
          4    1.950001        500.0006        250000.3        500.0000        500.0000        250000.0    
          5    2.450001        750.0007        375000.3        500.0000        500.0000        250000.0    
          6    2.950001        1000.001        500000.4        500.0000        500.0000        250000.0    
          7    3.450001        1250.001        625000.4        500.0000        500.0000        250000.0    
          8    3.950002        1500.001        750000.4        500.0000        500.0000        250000.0    
          9    4.450002        1750.001        875000.4        500.0000        500.0000        250000.0    
         10    4.950002        2000.001        1000000.        500.0000        500.0000        250000.0    
         11    5.450002        2250.001        1125000.        500.0000        500.0000        250000.0    
         12    5.950000        2500.000        1250000.        500.0000        500.0000        250000.0    
         13    5.950001        2500.001        1250000.        500.0000        500.0000        250000.0    
         14    15.95000        7500.000        3750000.        500.0000        500.0000        250000.0    

 REACH   =    19
 LAYSTR  =     1
 LAYEND  =     1
          N   ELEVATION [L]  XSECTAREA [L2]     VOLUME [L3] WET. PERIM. [L]   TOP WIDTH [L] SURF. AREA [L2]
 ---------- --------------- --------------- --------------- --------------- --------------- ---------------
          1   0.9500000        0.000000        0.000000        500.0000        500.0000        250000.0    
          2   0.9500010       0.5000000E-03   0.2500000        500.0000        500.0000        250000.0    
          3    1.450001        250.0005        125000.3        500.0000        500.0000        250000.0    
          4    1.950001        500.0006        250000.3        500.0000        500.0000        250000.0    
          5    2.450001        750.0007        375000.3        500.0000        500.0000        250000.0    
          6    2.950001        1000.001        500000.4        500.0000        500.0000        250000.0    
          7    3.450001        1250.001        625000.4        500.0000        500.0000        250000.0    
          8    3.950002        1500.001        750000.4        500.0000        500.0000        250000.0    
          9    4.450002        1750.001        875000.4        500.0000        500.0000        250000.0    
         10    4.950002        2000.001        1000000.        500.0000        500.0000        250000.0    
         11    5.450002        2250.001        1125000.        500.0000        500.0000        250000.0    
         12    5.950000        2500.000        1250000.        500.0000        500.0000        250000.0    
         13    5.950001        2500.001        1250000.        500.0000        500.0000        250000.0    
         14    15.95000        7500.000        3750000.        500.0000        500.0000        250000.0    

 REACH   =    20
 LAYSTR  =     1
 LAYEND  =     1
          N   ELEVATION [L]  XSECTAREA [L2]     VOLUME [L3] WET. PERIM. [L]   TOP WIDTH [L] SURF. AREA [L2]
 ---------- --------------- --------------- --------------- --------------- --------------- ---------------
          1   0.9500000        0.000000        0.000000        500.0000        500.0000        250000.0    
          2   0.9500010       0.5000000E-03   0.2500000        500.0000        500.0000        250000.0    
          3    1.450001        250.0005        125000.3        500.0000        500.0000        250000.0    
          4    1.950001        500.0006        250000.3        500.0000        500.0000        250000.0    
          5    2.450001        750.0007        375000.3        500.0000        500.0000        250000.0    
          6    2.950001        1000.001        500000.4        500.0000        500.0000        250000.0    
          7    3.450001        1250.001        625000.4        500.0000        500.0000        250000.0    
          8    3.950002        1500.001        750000.4        500.0000        500.0000        250000.0    
          9    4.450002        1750.001        875000.4        500.0000        500.0000        250000.0    
         10    4.950002        2000.001        1000000.        500.0000        500.0000        250000.0    
         11    5.450002        2250.001        1125000.        500.0000        500.0000        250000.0    
         12    5.950000        2500.000        1250000.        500.0000        500.0000        250000.0    
         13    5.950001        2500.001        1250000.        500.0000        500.0000        250000.0    
         14    15.95000        7500.000        3750000.        500.0000        500.0000        250000.0    

 REACH   =    21
 LAYSTR  =     1
 LAYEND  =     1
          N   ELEVATION [L]  XSECTAREA [L2]     VOLUME [L3] WET. PERIM. [L]   TOP WIDTH [L] SURF. AREA [L2]
 ---------- --------------- --------------- --------------- --------------- --------------- ---------------
          1   0.9500000        0.000000        0.000000        500.0000        500.0000        250000.0    
          2   0.9500010       0.5000000E-03   0.2500000        500.0000        500.0000        250000.0    
          3    1.450001        250.0005        125000.3        500.0000        500.0000        250000.0    
          4    1.950001        500.0006        250000.3        500.0000        500.0000        250000.0    
          5    2.450001        750.0007        375000.3        500.0000        500.0000        250000.0    
          6    2.950001        1000.001        500000.4        500.0000        500.0000        250000.0    
          7    3.450001        1250.001        625000.4        500.0000        500.0000        250000.0    
          8    3.950002        1500.001        750000.4        500.0000        500.0000        250000.0    
          9    4.450002        1750.001        875000.4        500.0000        500.0000        250000.0    
         10    4.950002        2000.001        1000000.        500.0000        500.0000        250000.0    
         11    5.450002        2250.001        1125000.        500.0000        500.0000        250000.0    
         12    5.950000        2500.000        1250000.        500.0000        500.0000        250000.0    
         13    5.950001        2500.001        1250000.        500.0000        500.0000        250000.0    
         14    15.95000        7500.000        3750000.        500.0000        500.0000        250000.0    

 REACH   =    22
 LAYSTR  =     1
 LAYEND  =     1
          N   ELEVATION [L]  XSECTAREA [L2]     VOLUME [L3] WET. PERIM. [L]   TOP WIDTH [L] SURF. AREA [L2]
 ---------- --------------- --------------- --------------- --------------- --------------- ---------------
          1   0.9500000        0.000000        0.000000        500.0000        500.0000        250000.0    
          2   0.9500010       0.5000000E-03   0.2500000        500.0000        500.0000        250000.0    
          3    1.450001        250.0005        125000.3        500.0000        500.0000        250000.0    
          4    1.950001        500.0006        250000.3        500.0000        500.0000        250000.0    
          5    2.450001        750.0007        375000.3        500.0000        500.0000        250000.0    
          6    2.950001        1000.001        500000.4        500.0000        500.0000        250000.0    
          7    3.450001        1250.001        625000.4        500.0000        500.0000        250000.0    
          8    3.950002        1500.001        750000.4        500.0000        500.0000        250000.0    
          9    4.450002        1750.001        875000.4        500.0000        500.0000        250000.0    
         10    4.950002        2000.001        1000000.        500.0000        500.0000        250000.0    
         11    5.450002        2250.001        1125000.        500.0000        500.0000        250000.0    
         12    5.950000        2500.000        1250000.        500.0000        500.0000        250000.0    
         13    5.950001        2500.001        1250000.        500.0000        500.0000        250000.0    
         14    15.95000        7500.000        3750000.        500.0000        500.0000        250000.0    

 REACH   =    23
 LAYSTR  =     1
 LAYEND  =     1
          N   ELEVATION [L]  XSECTAREA [L2]     VOLUME [L3] WET. PERIM. [L]   TOP WIDTH [L] SURF. AREA [L2]
 ---------- --------------- --------------- --------------- --------------- --------------- ---------------
          1   0.8500000        0.000000        0.000000        500.0000        500.0000        250000.0    
          2   0.8500010       0.5000000E-03   0.2500000        500.0000        500.0000        250000.0    
          3    1.350001        250.0005        125000.3        500.0000        500.0000        250000.0    
          4    1.850001        500.0006        250000.3        500.0000        500.0000        250000.0    
          5    2.350001        750.0007        375000.3        500.0000        500.0000        250000.0    
          6    2.850001        1000.001        500000.4        500.0000        500.0000        250000.0    
          7    3.350002        1250.001        625000.4        500.0000        500.0000        250000.0    
          8    3.850002        1500.001        750000.4        500.0000        500.0000        250000.0    
          9    4.350002        1750.001        875000.4        500.0000        500.0000        250000.0    
         10    4.850002        2000.001        1000000.        500.0000        500.0000        250000.0    
         11    5.350002        2250.001        1125000.        500.0000        500.0000        250000.0    
         12    5.850000        2500.000        1250000.        500.0000        500.0000        250000.0    
         13    5.850001        2500.001        1250000.        500.0000        500.0000        250000.0    
         14    15.85000        7500.000        3750000.        500.0000        500.0000        250000.0    

 REACH   =    24
 LAYSTR  =     1
 LAYEND  =     1
          N   ELEVATION [L]  XSECTAREA [L2]     VOLUME [L3] WET. PERIM. [L]   TOP WIDTH [L] SURF. AREA [L2]
 ---------- --------------- --------------- --------------- --------------- --------------- ---------------
          1   0.8500000        0.000000        0.000000        500.0000        500.0000        250000.0    
          2   0.8500010       0.5000000E-03   0.2500000        500.0000        500.0000        250000.0    
          3    1.350001        250.0005        125000.3        500.0000        500.0000        250000.0    
          4    1.850001        500.0006        250000.3        500.0000        500.0000        250000.0    
          5    2.350001        750.0007        375000.3        500.0000        500.0000        250000.0    
          6    2.850001        1000.001        500000.4        500.0000        500.0000        250000.0    
          7    3.350002        1250.001        625000.4        500.0000        500.0000        250000.0    
          8    3.850002        1500.001        750000.4        500.0000        500.0000        250000.0    
          9    4.350002        1750.001        875000.4        500.0000        500.0000        250000.0    
         10    4.850002        2000.001        1000000.        500.0000        500.0000        250000.0    
         11    5.350002        2250.001        1125000.        500.0000        500.0000        250000.0    
         12    5.850000        2500.000        1250000.        500.0000        500.0000        250000.0    
         13    5.850001        2500.001        1250000.        500.0000        500.0000        250000.0    
         14    15.85000        7500.000        3750000.        500.0000        500.0000        250000.0    

 REACH   =    25
 LAYSTR  =     1
 LAYEND  =     1
          N   ELEVATION [L]  XSECTAREA [L2]     VOLUME [L3] WET. PERIM. [L]   TOP WIDTH [L] SURF. AREA [L2]
 ---------- --------------- --------------- --------------- --------------- --------------- ---------------
          1   0.8500000        0.000000        0.000000        500.0000        500.0000        250000.0    
          2   0.8500010       0.5000000E-03   0.2500000        500.0000        500.0000        250000.0    
          3    1.350001        250.0005        125000.3        500.0000        500.0000        250000.0    
          4    1.850001        500.0006        250000.3        500.0000        500.0000        250000.0    
          5    2.350001        750.0007        375000.3        500.0000        500.0000        250000.0    
          6    2.850001        1000.001        500000.4        500.0000        500.0000        250000.0    
          7    3.350002        1250.001        625000.4        500.0000        500.0000        250000.0    
          8    3.850002        1500.001        750000.4        500.0000        500.0000        250000.0    
          9    4.350002        1750.001        875000.4        500.0000        500.0000        250000.0    
         10    4.850002        2000.001        1000000.        500.0000        500.0000        250000.0    
         11    5.350002        2250.001        1125000.        500.0000        500.0000        250000.0    
         12    5.850000        2500.000        1250000.        500.0000        500.0000        250000.0    
         13    5.850001        2500.001        1250000.        500.0000        500.0000        250000.0    
         14    15.85000        7500.000        3750000.        500.0000        500.0000        250000.0    

 REACH   =    26
 LAYSTR  =     1
 LAYEND  =     1
          N   ELEVATION [L]  XSECTAREA [L2]     VOLUME [L3] WET. PERIM. [L]   TOP WIDTH [L] SURF. AREA [L2]
 ---------- --------------- --------------- --------------- --------------- --------------- ---------------
          1   0.8500000        0.000000        0.000000        500.0000        500.0000        250000.0    
          2   0.8500010       0.5000000E-03   0.2500000        500.0000        500.0000        250000.0    
          3    1.350001        250.0005        125000.3        500.0000        500.0000        250000.0    
          4    1.850001        500.0006        250000.3        500.0000        500.0000        250000.0    
          5    2.350001        750.0007        375000.3        500.0000        500.0000        250000.0    
          6    2.850001        1000.001        500000.4        500.0000        500.0000        250000.0    
          7    3.350002        1250.001        625000.4        500.0000        500.0000        250000.0    
          8    3.850002        1500.001        750000.4        500.0000        500.0000        250000.0    
          9    4.350002        1750.001        875000.4        500.0000        500.0000        250000.0    
         10    4.850002        2000.001        1000000.        500.0000        500.0000        250000.0    
         11    5.350002        2250.001        1125000.        500.0000        500.0000        250000.0    
         12    5.850000        2500.000        1250000.        500.0000        500.0000        250000.0    
         13    5.850001        2500.001        1250000.        500.0000        500.0000        250000.0    
         14    15.85000        7500.000        3750000.        500.0000        500.0000        250000.0    

 REACH   =    27
 LAYSTR  =     1
 LAYEND  =     1
          N   ELEVATION [L]  XSECTAREA [L2]     VOLUME [L3] WET. PERIM. [L]   TOP WIDTH [L] SURF. AREA [L2]
 ---------- --------------- --------------- --------------- --------------- --------------- ---------------
          1   0.8500000        0.000000        0.000000        500.0000        500.0000        250000.0    
          2   0.8500010       0.5000000E-03   0.2500000        500.0000        500.0000        250000.0    
          3    1.350001        250.0005        125000.3        500.0000        500.0000        250000.0    
          4    1.850001        500.0006        250000.3        500.0000        500.0000        250000.0    
          5    2.350001        750.0007        375000.3        500.0000        500.0000        250000.0    
          6    2.850001        1000.001        500000.4        500.0000        500.0000        250000.0    
          7    3.350002        1250.001        625000.4        500.0000        500.0000        250000.0    
          8    3.850002        1500.001        750000.4        500.0000        500.0000        250000.0    
          9    4.350002        1750.001        875000.4        500.0000        500.0000        250000.0    
         10    4.850002        2000.001        1000000.        500.0000        500.0000        250000.0    
         11    5.350002        2250.001        1125000.        500.0000        500.0000        250000.0    
         12    5.850000        2500.000        1250000.        500.0000        500.0000        250000.0    
         13    5.850001        2500.001        1250000.        500.0000        500.0000        250000.0    
         14    15.85000        7500.000        3750000.        500.0000        500.0000        250000.0    

 REACH   =    28
 LAYSTR  =     1
 LAYEND  =     1
          N   ELEVATION [L]  XSECTAREA [L2]     VOLUME [L3] WET. PERIM. [L]   TOP WIDTH [L] SURF. AREA [L2]
 ---------- --------------- --------------- --------------- --------------- --------------- ---------------
          1   0.8500000        0.000000        0.000000        500.0000        500.0000        250000.0    
          2   0.8500010       0.5000000E-03   0.2500000        500.0000        500.0000        250000.0    
          3    1.350001        250.0005        125000.3        500.0000        500.0000        250000.0    
          4    1.850001        500.0006        250000.3        500.0000        500.0000        250000.0    
          5    2.350001        750.0007        375000.3        500.0000        500.0000        250000.0    
          6    2.850001        1000.001        500000.4        500.0000        500.0000        250000.0    
          7    3.350002        1250.001        625000.4        500.0000        500.0000        250000.0    
          8    3.850002        1500.001        750000.4        500.0000        500.0000        250000.0    
          9    4.350002        1750.001        875000.4        500.0000        500.0000        250000.0    
         10    4.850002        2000.001        1000000.        500.0000        500.0000        250000.0    
         11    5.350002        2250.001        1125000.        500.0000        500.0000        250000.0    
         12    5.850000        2500.000        1250000.        500.0000        500.0000        250000.0    
         13    5.850001        2500.001        1250000.        500.0000        500.0000        250000.0    
         14    15.85000        7500.000        3750000.        500.0000        500.0000        250000.0    

 REACH   =    29
 LAYSTR  =     1
 LAYEND  =     1
          N   ELEVATION [L]  XSECTAREA [L2]     VOLUME [L3] WET. PERIM. [L]   TOP WIDTH [L] SURF. AREA [L2]
 ---------- --------------- --------------- --------------- --------------- --------------- ---------------
          1   0.8500000        0.000000        0.000000        500.0000        500.0000        250000.0    
          2   0.8500010       0.5000000E-03   0.2500000        500.0000        500.0000        250000.0    
          3    1.350001        250.0005        125000.3        500.0000        500.0000        250000.0    
          4    1.850001        500.0006        250000.3        500.0000        500.0000        250000.0    
          5    2.350001        750.0007        375000.3        500.0000        500.0000        250000.0    
          6    2.850001        1000.001        500000.4        500.0000        500.0000        250000.0    
          7    3.350002        1250.001        625000.4        500.0000        500.0000        250000.0    
          8    3.850002        1500.001        750000.4        500.0000        500.0000        250000.0    
          9    4.350002        1750.001        875000.4        500.0000        500.0000        250000.0    
         10    4.850002        2000.001        1000000.        500.0000        500.0000        250000.0    
         11    5.350002        2250.001        1125000.        500.0000        500.0000        250000.0    
         12    5.850000        2500.000        1250000.        500.0000        500.0000        250000.0    
         13    5.850001        2500.001        1250000.        500.0000        500.0000        250000.0    
         14    15.85000        7500.000        3750000.        500.0000        500.0000        250000.0    

 REACH   =    30
 LAYSTR  =     1
 LAYEND  =     1
          N   ELEVATION [L]  XSECTAREA [L2]     VOLUME [L3] WET. PERIM. [L]   TOP WIDTH [L] SURF. AREA [L2]
 ---------- --------------- --------------- --------------- --------------- --------------- ---------------
          1   0.8500000        0.000000        0.000000        500.0000        500.0000        250000.0    
          2   0.8500010       0.5000000E-03   0.2500000        500.0000        500.0000        250000.0    
          3    1.350001        250.0005        125000.3        500.0000        500.0000        250000.0    
          4    1.850001        500.0006        250000.3        500.0000        500.0000        250000.0    
          5    2.350001        750.0007        375000.3        500.0000        500.0000        250000.0    
          6    2.850001        1000.001        500000.4        500.0000        500.0000        250000.0    
          7    3.350002        1250.001        625000.4        500.0000        500.0000        250000.0    
          8    3.850002        1500.001        750000.4        500.0000        500.0000        250000.0    
          9    4.350002        1750.001        875000.4        500.0000        500.0000        250000.0    
         10    4.850002        2000.001        1000000.        500.0000        500.0000        250000.0    
         11    5.350002        2250.001        1125000.        500.0000        500.0000        250000.0    
         12    5.850000        2500.000        1250000.        500.0000        500.0000        250000.0    
         13    5.850001        2500.001        1250000.        500.0000        500.0000        250000.0    
         14    15.85000        7500.000        3750000.        500.0000        500.0000        250000.0    

 REACH   =    31
 LAYSTR  =     1
 LAYEND  =     1
          N   ELEVATION [L]  XSECTAREA [L2]     VOLUME [L3] WET. PERIM. [L]   TOP WIDTH [L] SURF. AREA [L2]
 ---------- --------------- --------------- --------------- --------------- --------------- ---------------
          1   0.8500000        0.000000        0.000000        500.0000        500.0000        250000.0    
          2   0.8500010       0.5000000E-03   0.2500000        500.0000        500.0000        250000.0    
          3    1.350001        250.0005        125000.3        500.0000        500.0000        250000.0    
          4    1.850001        500.0006        250000.3        500.0000        500.0000        250000.0    
          5    2.350001        750.0007        375000.3        500.0000        500.0000        250000.0    
          6    2.850001        1000.001        500000.4        500.0000        500.0000        250000.0    
          7    3.350002        1250.001        625000.4        500.0000        500.0000        250000.0    
          8    3.850002        1500.001        750000.4        500.0000        500.0000        250000.0    
          9    4.350002        1750.001        875000.4        500.0000        500.0000        250000.0    
         10    4.850002        2000.001        1000000.        500.0000        500.0000        250000.0    
         11    5.350002        2250.001        1125000.        500.0000        500.0000        250000.0    
         12    5.850000        2500.000        1250000.        500.0000        500.0000        250000.0    
         13    5.850001        2500.001        1250000.        500.0000        500.0000        250000.0    
         14    15.85000        7500.000        3750000.        500.0000        500.0000        250000.0    

 REACH   =    32
 LAYSTR  =     1
 LAYEND  =     1
          N   ELEVATION [L]  XSECTAREA [L2]     VOLUME [L3] WET. PERIM. [L]   TOP WIDTH [L] SURF. AREA [L2]
 ---------- --------------- --------------- --------------- --------------- --------------- ---------------
          1   0.8500000        0.000000        0.000000        500.0000        500.0000        250000.0    
          2   0.8500010       0.5000000E-03   0.2500000        500.0000        500.0000        250000.0    
          3    1.350001        250.0005        125000.3        500.0000        500.0000        250000.0    
          4    1.850001        500.0006        250000.3        500.0000        500.0000        250000.0    
          5    2.350001        750.0007        375000.3        500.0000        500.0000        250000.0    
          6    2.850001        1000.001        500000.4        500.0000        500.0000        250000.0    
          7    3.350002        1250.001        625000.4        500.0000        500.0000        250000.0    
          8    3.850002        1500.001        750000.4        500.0000        500.0000        250000.0    
          9    4.350002        1750.001        875000.4        500.0000        500.0000        250000.0    
         10    4.850002        2000.001        1000000.        500.0000        500.0000        250000.0    
         11    5.350002        2250.001        1125000.        500.0000        500.0000        250000.0    
         12    5.850000        2500.000        1250000.        500.0000        500.0000        250000.0    
         13    5.850001        2500.001        1250000.        500.0000        500.0000        250000.0    
         14    15.85000        7500.000        3750000.        500.0000        500.0000        250000.0    

 REACH   =    33
 LAYSTR  =     1
 LAYEND  =     1
          N   ELEVATION [L]  XSECTAREA [L2]     VOLUME [L3] WET. PERIM. [L]   TOP WIDTH [L] SURF. AREA [L2]
 ---------- --------------- --------------- --------------- --------------- --------------- ---------------
          1   0.8500000        0.000000        0.000000        500.0000        500.0000        250000.0    
          2   0.8500010       0.5000000E-03   0.2500000        500.0000        500.0000        250000.0    
          3    1.350001        250.0005        125000.3        500.0000        500.0000        250000.0    
          4    1.850001        500.0006        250000.3        500.0000        500.0000        250000.0    
          5    2.350001        750.0007        375000.3        500.0000        500.0000        250000.0    
          6    2.850001        1000.001        500000.4        500.0000        500.0000        250000.0    
          7    3.350002        1250.001        625000.4        500.0000        500.0000        250000.0    
          8    3.850002        1500.001        750000.4        500.0000        500.0000        250000.0    
          9    4.350002        1750.001        875000.4        500.0000        500.0000        250000.0    
         10    4.850002        2000.001        1000000.        500.0000        500.0000        250000.0    
         11    5.350002        2250.001        1125000.        500.0000        500.0000        250000.0    
         12    5.850000        2500.000        1250000.        500.0000        500.0000        250000.0    
         13    5.850001        2500.001        1250000.        500.0000        500.0000        250000.0    
         14    15.85000        7500.000        3750000.        500.0000        500.0000        250000.0    

 REACH   =    34
 LAYSTR  =     1
 LAYEND  =     1
          N   ELEVATION [L]  XSECTAREA [L2]     VOLUME [L3] WET. PERIM. [L]   TOP WIDTH [L] SURF. AREA [L2]
 ---------- --------------- --------------- --------------- --------------- --------------- ---------------
          1   0.7500000        0.000000        0.000000        500.0000        500.0000        250000.0    
          2   0.7500010       0.5000000E-03   0.2500000        500.0000        500.0000        250000.0    
          3    1.250001        250.0005        125000.3        500.0000        500.0000        250000.0    
          4    1.750001        500.0006        250000.3        500.0000        500.0000        250000.0    
          5    2.250001        750.0007        375000.3        500.0000        500.0000        250000.0    
          6    2.750001        1000.001        500000.4        500.0000        500.0000        250000.0    
          7    3.250002        1250.001        625000.4        500.0000        500.0000        250000.0    
          8    3.750002        1500.001        750000.4        500.0000        500.0000        250000.0    
          9    4.250002        1750.001        875000.4        500.0000        500.0000        250000.0    
         10    4.750002        2000.001        1000000.        500.0000        500.0000        250000.0    
         11    5.250002        2250.001        1125000.        500.0000        500.0000        250000.0    
         12    5.750000        2500.000        1250000.        500.0000        500.0000        250000.0    
         13    5.750001        2500.001        1250000.        500.0000        500.0000        250000.0    
         14    15.75000        7500.000        3750000.        500.0000        500.0000        250000.0    

 REACH   =    35
 LAYSTR  =     1
 LAYEND  =     1
          N   ELEVATION [L]  XSECTAREA [L2]     VOLUME [L3] WET. PERIM. [L]   TOP WIDTH [L] SURF. AREA [L2]
 ---------- --------------- --------------- --------------- --------------- --------------- ---------------
          1   0.7500000        0.000000        0.000000        500.0000        500.0000        250000.0    
          2   0.7500010       0.5000000E-03   0.2500000        500.0000        500.0000        250000.0    
          3    1.250001        250.0005        125000.3        500.0000        500.0000        250000.0    
          4    1.750001        500.0006        250000.3        500.0000        500.0000        250000.0    
          5    2.250001        750.0007        375000.3        500.0000        500.0000        250000.0    
          6    2.750001        1000.001        500000.4        500.0000        500.0000        250000.0    
          7    3.250002        1250.001        625000.4        500.0000        500.0000        250000.0    
          8    3.750002        1500.001        750000.4        500.0000        500.0000        250000.0    
          9    4.250002        1750.001        875000.4        500.0000        500.0000        250000.0    
         10    4.750002        2000.001        1000000.        500.0000        500.0000        250000.0    
         11    5.250002        2250.001        1125000.        500.0000        500.0000        250000.0    
         12    5.750000        2500.000        1250000.        500.0000        500.0000        250000.0    
         13    5.750001        2500.001        1250000.        500.0000        500.0000        250000.0    
         14    15.75000        7500.000        3750000.        500.0000        500.0000        250000.0    

 REACH   =    36
 LAYSTR  =     1
 LAYEND  =     1
          N   ELEVATION [L]  XSECTAREA [L2]     VOLUME [L3] WET. PERIM. [L]   TOP WIDTH [L] SURF. AREA [L2]
 ---------- --------------- --------------- --------------- --------------- --------------- ---------------
          1   0.7500000        0.000000        0.000000        500.0000        500.0000        250000.0    
          2   0.7500010       0.5000000E-03   0.2500000        500.0000        500.0000        250000.0    
          3    1.250001        250.0005        125000.3        500.0000        500.0000        250000.0    
          4    1.750001        500.0006        250000.3        500.0000        500.0000        250000.0    
          5    2.250001        750.0007        375000.3        500.0000        500.0000        250000.0    
          6    2.750001        1000.001        500000.4        500.0000        500.0000        250000.0    
          7    3.250002        1250.001        625000.4        500.0000        500.0000        250000.0    
          8    3.750002        1500.001        750000.4        500.0000        500.0000        250000.0    
          9    4.250002        1750.001        875000.4        500.0000        500.0000        250000.0    
         10    4.750002        2000.001        1000000.        500.0000        500.0000        250000.0    
         11    5.250002        2250.001        1125000.        500.0000        500.0000        250000.0    
         12    5.750000        2500.000        1250000.        500.0000        500.0000        250000.0    
         13    5.750001        2500.001        1250000.        500.0000        500.0000        250000.0    
         14    15.75000        7500.000        3750000.        500.0000        500.0000        250000.0    

 REACH   =    37
 LAYSTR  =     1
 LAYEND  =     1
          N   ELEVATION [L]  XSECTAREA [L2]     VOLUME [L3] WET. PERIM. [L]   TOP WIDTH [L] SURF. AREA [L2]
 ---------- --------------- --------------- --------------- --------------- --------------- ---------------
          1   0.7500000        0.000000        0.000000        500.0000        500.0000        250000.0    
          2   0.7500010       0.5000000E-03   0.2500000        500.0000        500.0000        250000.0    
          3    1.250001        250.0005        125000.3        500.0000        500.0000        250000.0    
          4    1.750001        500.0006        250000.3        500.0000        500.0000        250000.0    
          5    2.250001        750.0007        375000.3        500.0000        500.0000        250000.0    
          6    2.750001        1000.001        500000.4        500.0000        500.0000        250000.0    
          7    3.250002        1250.001        625000.4        500.0000        500.0000        250000.0    
          8    3.750002        1500.001        750000.4        500.0000        500.0000        250000.0    
          9    4.250002        1750.001        875000.4        500.0000        500.0000        250000.0    
         10    4.750002        2000.001        1000000.        500.0000        500.0000        250000.0    
         11    5.250002        2250.001        1125000.        500.0000        500.0000        250000.0    
         12    5.750000        2500.000        1250000.        500.0000        500.0000        250000.0    
         13    5.750001        2500.001        1250000.        500.0000        500.0000        250000.0    
         14    15.75000        7500.000        3750000.        500.0000        500.0000        250000.0    

 REACH   =    38
 LAYSTR  =     1
 LAYEND  =     1
          N   ELEVATION [L]  XSECTAREA [L2]     VOLUME [L3] WET. PERIM. [L]   TOP WIDTH [L] SURF. AREA [L2]
 ---------- --------------- --------------- --------------- --------------- --------------- ---------------
          1   0.7500000        0.000000        0.000000        500.0000        500.0000        250000.0    
          2   0.7500010       0.5000000E-03   0.2500000        500.0000        500.0000        250000.0    
          3    1.250001        250.0005        125000.3        500.0000        500.0000        250000.0    
          4    1.750001        500.0006        250000.3        500.0000        500.0000        250000.0    
          5    2.250001        750.0007        375000.3        500.0000        500.0000        250000.0    
          6    2.750001        1000.001        500000.4        500.0000        500.0000        250000.0    
          7    3.250002        1250.001        625000.4        500.0000        500.0000        250000.0    
          8    3.750002        1500.001        750000.4        500.0000        500.0000        250000.0    
          9    4.250002        1750.001        875000.4        500.0000        500.0000        250000.0    
         10    4.750002        2000.001        1000000.        500.0000        500.0000        250000.0    
         11    5.250002        2250.001        1125000.        500.0000        500.0000        250000.0    
         12    5.750000        2500.000        1250000.        500.0000        500.0000        250000.0    
         13    5.750001        2500.001        1250000.        500.0000        500.0000        250000.0    
         14    15.75000        7500.000        3750000.        500.0000        500.0000        250000.0    

 REACH   =    39
 LAYSTR  =     1
 LAYEND  =     1
          N   ELEVATION [L]  XSECTAREA [L2]     VOLUME [L3] WET. PERIM. [L]   TOP WIDTH [L] SURF. AREA [L2]
 ---------- --------------- --------------- --------------- --------------- --------------- ---------------
          1   0.7500000        0.000000        0.000000        500.0000        500.0000        250000.0    
          2   0.7500010       0.5000000E-03   0.2500000        500.0000        500.0000        250000.0    
          3    1.250001        250.0005        125000.3        500.0000        500.0000        250000.0    
          4    1.750001        500.0006        250000.3        500.0000        500.0000        250000.0    
          5    2.250001        750.0007        375000.3        500.0000        500.0000        250000.0    
          6    2.750001        1000.001        500000.4        500.0000        500.0000        250000.0    
          7    3.250002        1250.001        625000.4        500.0000        500.0000        250000.0    
          8    3.750002        1500.001        750000.4        500.0000        500.0000        250000.0    
          9    4.250002        1750.001        875000.4        500.0000        500.0000        250000.0    
         10    4.750002        2000.001        1000000.        500.0000        500.0000        250000.0    
         11    5.250002        2250.001        1125000.        500.0000        500.0000        250000.0    
         12    5.750000        2500.000        1250000.        500.0000        500.0000        250000.0    
         13    5.750001        2500.001        1250000.        500.0000        500.0000        250000.0    
         14    15.75000        7500.000        3750000.        500.0000        500.0000        250000.0    

 REACH   =    40
 LAYSTR  =     1
 LAYEND  =     1
          N   ELEVATION [L]  XSECTAREA [L2]     VOLUME [L3] WET. PERIM. [L]   TOP WIDTH [L] SURF. AREA [L2]
 ---------- --------------- --------------- --------------- --------------- --------------- ---------------
          1   0.7500000        0.000000        0.000000        500.0000        500.0000        250000.0    
          2   0.7500010       0.5000000E-03   0.2500000        500.0000        500.0000        250000.0    
          3    1.250001        250.0005        125000.3        500.0000        500.0000        250000.0    
          4    1.750001        500.0006        250000.3        500.0000        500.0000        250000.0    
          5    2.250001        750.0007        375000.3        500.0000        500.0000        250000.0    
          6    2.750001        1000.001        500000.4        500.0000        500.0000        250000.0    
          7    3.250002        1250.001        625000.4        500.0000        500.0000        250000.0    
          8    3.750002        1500.001        750000.4        500.0000        500.0000        250000.0    
          9    4.250002        1750.001        875000.4        500.0000        500.0000        250000.0    
         10    4.750002        2000.001        1000000.        500.0000        500.0000        250000.0    
         11    5.250002        2250.001        1125000.        500.0000        500.0000        250000.0    
         12    5.750000        2500.000        1250000.        500.0000        500.0000        250000.0    
         13    5.750001        2500.001        1250000.        500.0000        500.0000        250000.0    
         14    15.75000        7500.000        3750000.        500.0000        500.0000        250000.0    

 REACH   =    41
 LAYSTR  =     1
 LAYEND  =     1
          N   ELEVATION [L]  XSECTAREA [L2]     VOLUME [L3] WET. PERIM. [L]   TOP WIDTH [L] SURF. AREA [L2]
 ---------- --------------- --------------- --------------- --------------- --------------- ---------------
          1   0.7500000        0.000000        0.000000        500.0000        500.0000        250000.0    
          2   0.7500010       0.5000000E-03   0.2500000        500.0000        500.0000        250000.0    
          3    1.250001        250.0005        125000.3        500.0000        500.0000        250000.0    
          4    1.750001        500.0006        250000.3        500.0000        500.0000        250000.0    
          5    2.250001        750.0007        375000.3        500.0000        500.0000        250000.0    
          6    2.750001        1000.001        500000.4        500.0000        500.0000        250000.0    
          7    3.250002        1250.001        625000.4        500.0000        500.0000        250000.0    
          8    3.750002        1500.001        750000.4        500.0000        500.0000        250000.0    
          9    4.250002        1750.001        875000.4        500.0000        500.0000        250000.0    
         10    4.750002        2000.001        1000000.        500.0000        500.0000        250000.0    
         11    5.250002        2250.001        1125000.        500.0000        500.0000        250000.0    
         12    5.750000        2500.000        1250000.        500.0000        500.0000        250000.0    
         13    5.750001        2500.001        1250000.        500.0000        500.0000        250000.0    
         14    15.75000        7500.000        3750000.        500.0000        500.0000        250000.0    

 REACH   =    42
 LAYSTR  =     1
 LAYEND  =     1
          N   ELEVATION [L]  XSECTAREA [L2]     VOLUME [L3] WET. PERIM. [L]   TOP WIDTH [L] SURF. AREA [L2]
 ---------- --------------- --------------- --------------- --------------- --------------- ---------------
          1   0.7500000        0.000000        0.000000        500.0000        500.0000        250000.0    
          2   0.7500010       0.5000000E-03   0.2500000        500.0000        500.0000        250000.0    
          3    1.250001        250.0005        125000.3        500.0000        500.0000        250000.0    
          4    1.750001        500.0006        250000.3        500.0000        500.0000        250000.0    
          5    2.250001        750.0007        375000.3        500.0000        500.0000        250000.0    
          6    2.750001        1000.001        500000.4        500.0000        500.0000        250000.0    
          7    3.250002        1250.001        625000.4        500.0000        500.0000        250000.0    
          8    3.750002        1500.001        750000.4        500.0000        500.0000        250000.0    
          9    4.250002        1750.001        875000.4        500.0000        500.0000        250000.0    
         10    4.750002        2000.001        1000000.        500.0000        500.0000        250000.0    
         11    5.250002        2250.001        1125000.        500.0000        500.0000        250000.0    
         12    5.750000        2500.000        1250000.        500.0000        500.0000        250000.0    
         13    5.750001        2500.001        1250000.        500.0000        500.0000        250000.0    
         14    15.75000        7500.000        3750000.        500.0000        500.0000        250000.0    

 REACH   =    43
 LAYSTR  =     1
 LAYEND  =     1
          N   ELEVATION [L]  XSECTAREA [L2]     VOLUME [L3] WET. PERIM. [L]   TOP WIDTH [L] SURF. AREA [L2]
 ---------- --------------- --------------- --------------- --------------- --------------- ---------------
          1   0.7500000        0.000000        0.000000        500.0000        500.0000        250000.0    
          2   0.7500010       0.5000000E-03   0.2500000        500.0000        500.0000        250000.0    
          3    1.250001        250.0005        125000.3        500.0000        500.0000        250000.0    
          4    1.750001        500.0006        250000.3        500.0000        500.0000        250000.0    
          5    2.250001        750.0007        375000.3        500.0000        500.0000        250000.0    
          6    2.750001        1000.001        500000.4        500.0000        500.0000        250000.0    
          7    3.250002        1250.001        625000.4        500.0000        500.0000        250000.0    
          8    3.750002        1500.001        750000.4        500.0000        500.0000        250000.0    
          9    4.250002        1750.001        875000.4        500.0000        500.0000        250000.0    
         10    4.750002        2000.001        1000000.        500.0000        500.0000        250000.0    
         11    5.250002        2250.001        1125000.        500.0000        500.0000        250000.0    
         12    5.750000        2500.000        1250000.        500.0000        500.0000        250000.0    
         13    5.750001        2500.001        1250000.        500.0000        500.0000        250000.0    
         14    15.75000        7500.000        3750000.        500.0000        500.0000        250000.0    

 REACH   =    44
 LAYSTR  =     1
 LAYEND  =     1
          N   ELEVATION [L]  XSECTAREA [L2]     VOLUME [L3] WET. PERIM. [L]   TOP WIDTH [L] SURF. AREA [L2]
 ---------- --------------- --------------- --------------- --------------- --------------- ---------------
          1   0.7500000        0.000000        0.000000        500.0000        500.0000        250000.0    
          2   0.7500010       0.5000000E-03   0.2500000        500.0000        500.0000        250000.0    
          3    1.250001        250.0005        125000.3        500.0000        500.0000        250000.0    
          4    1.750001        500.0006        250000.3        500.0000        500.0000        250000.0    
          5    2.250001        750.0007        375000.3        500.0000        500.0000        250000.0    
          6    2.750001        1000.001        500000.4        500.0000        500.0000        250000.0    
          7    3.250002        1250.001        625000.4        500.0000        500.0000        250000.0    
          8    3.750002        1500.001        750000.4        500.0000        500.0000        250000.0    
          9    4.250002        1750.001        875000.4        500.0000        500.0000        250000.0    
         10    4.750002        2000.001        1000000.        500.0000        500.0000        250000.0    
         11    5.250002        2250.001        1125000.        500.0000        500.0000        250000.0    
         12    5.750000        2500.000        1250000.        500.0000        500.0000        250000.0    
         13    5.750001        2500.001        1250000.        500.0000        500.0000        250000.0    
         14    15.75000        7500.000        3750000.        500.0000        500.0000        250000.0    

 REACH   =    45
 LAYSTR  =     1
 LAYEND  =     1
          N   ELEVATION [L]  XSECTAREA [L2]     VOLUME [L3] WET. PERIM. [L]   TOP WIDTH [L] SURF. AREA [L2]
 ---------- --------------- --------------- --------------- --------------- --------------- ---------------
          1   0.6500000        0.000000        0.000000        500.0000        500.0000        250000.0    
          2   0.6500010       0.5000000E-03   0.2500000        500.0000        500.0000        250000.0    
          3    1.150001        250.0005        125000.3        500.0000        500.0000        250000.0    
          4    1.650001        500.0006        250000.3        500.0000        500.0000        250000.0    
          5    2.150001        750.0007        375000.3        500.0000        500.0000        250000.0    
          6    2.650001        1000.001        500000.4        500.0000        500.0000        250000.0    
          7    3.150001        1250.001        625000.4        500.0000        500.0000        250000.0    
          8    3.650002        1500.001        750000.4        500.0000        500.0000        250000.0    
          9    4.150002        1750.001        875000.4        500.0000        500.0000        250000.0    
         10    4.650002        2000.001        1000000.        500.0000        500.0000        250000.0    
         11    5.150002        2250.001        1125000.        500.0000        500.0000        250000.0    
         12    5.650000        2500.000        1250000.        500.0000        500.0000        250000.0    
         13    5.650001        2500.001        1250000.        500.0000        500.0000        250000.0    
         14    15.65000        7500.000        3750000.        500.0000        500.0000        250000.0    

 REACH   =    46
 LAYSTR  =     1
 LAYEND  =     1
          N   ELEVATION [L]  XSECTAREA [L2]     VOLUME [L3] WET. PERIM. [L]   TOP WIDTH [L] SURF. AREA [L2]
 ---------- --------------- --------------- --------------- --------------- --------------- ---------------
          1   0.6500000        0.000000        0.000000        500.0000        500.0000        250000.0    
          2   0.6500010       0.5000000E-03   0.2500000        500.0000        500.0000        250000.0    
          3    1.150001        250.0005        125000.3        500.0000        500.0000        250000.0    
          4    1.650001        500.0006        250000.3        500.0000        500.0000        250000.0    
          5    2.150001        750.0007        375000.3        500.0000        500.0000        250000.0    
          6    2.650001        1000.001        500000.4        500.0000        500.0000        250000.0    
          7    3.150001        1250.001        625000.4        500.0000        500.0000        250000.0    
          8    3.650002        1500.001        750000.4        500.0000        500.0000        250000.0    
          9    4.150002        1750.001        875000.4        500.0000        500.0000        250000.0    
         10    4.650002        2000.001        1000000.        500.0000        500.0000        250000.0    
         11    5.150002        2250.001        1125000.        500.0000        500.0000        250000.0    
         12    5.650000        2500.000        1250000.        500.0000        500.0000        250000.0    
         13    5.650001        2500.001        1250000.        500.0000        500.0000        250000.0    
         14    15.65000        7500.000        3750000.        500.0000        500.0000        250000.0    

 REACH   =    47
 LAYSTR  =     1
 LAYEND  =     1
          N   ELEVATION [L]  XSECTAREA [L2]     VOLUME [L3] WET. PERIM. [L]   TOP WIDTH [L] SURF. AREA [L2]
 ---------- --------------- --------------- --------------- --------------- --------------- ---------------
          1   0.6500000        0.000000        0.000000        500.0000        500.0000        250000.0    
          2   0.6500010       0.5000000E-03   0.2500000        500.0000        500.0000        250000.0    
          3    1.150001        250.0005        125000.3        500.0000        500.0000        250000.0    
          4    1.650001        500.0006        250000.3        500.0000        500.0000        250000.0    
          5    2.150001        750.0007        375000.3        500.0000        500.0000        250000.0    
          6    2.650001        1000.001        500000.4        500.0000        500.0000        250000.0    
          7    3.150001        1250.001        625000.4        500.0000        500.0000        250000.0    
          8    3.650002        1500.001        750000.4        500.0000        500.0000        250000.0    
          9    4.150002        1750.001        875000.4        500.0000        500.0000        250000.0    
         10    4.650002        2000.001        1000000.        500.0000        500.0000        250000.0    
         11    5.150002        2250.001        1125000.        500.0000        500.0000        250000.0    
         12    5.650000        2500.000        1250000.        500.0000        500.0000        250000.0    
         13    5.650001        2500.001        1250000.        500.0000        500.0000        250000.0    
         14    15.65000        7500.000        3750000.        500.0000        500.0000        250000.0    

 REACH   =    48
 LAYSTR  =     1
 LAYEND  =     1
          N   ELEVATION [L]  XSECTAREA [L2]     VOLUME [L3] WET. PERIM. [L]   TOP WIDTH [L] SURF. AREA [L2]
 ---------- --------------- --------------- --------------- --------------- --------------- ---------------
          1   0.6500000        0.000000        0.000000        500.0000        500.0000        250000.0    
          2   0.6500010       0.5000000E-03   0.2500000        500.0000        500.0000        250000.0    
          3    1.150001        250.0005        125000.3        500.0000        500.0000        250000.0    
          4    1.650001        500.0006        250000.3        500.0000        500.0000        250000.0    
          5    2.150001        750.0007        375000.3        500.0000        500.0000        250000.0    
          6    2.650001        1000.001        500000.4        500.0000        500.0000        250000.0    
          7    3.150001        1250.001        625000.4        500.0000        500.0000        250000.0    
          8    3.650002        1500.001        750000.4        500.0000        500.0000        250000.0    
          9    4.150002        1750.001        875000.4        500.0000        500.0000        250000.0    
         10    4.650002        2000.001        1000000.        500.0000        500.0000        250000.0    
         11    5.150002        2250.001        1125000.        500.0000        500.0000        250000.0    
         12    5.650000        2500.000        1250000.        500.0000        500.0000        250000.0    
         13    5.650001        2500.001        1250000.        500.0000        500.0000        250000.0    
         14    15.65000        7500.000        3750000.        500.0000        500.0000        250000.0    

 REACH   =    49
 LAYSTR  =     1
 LAYEND  =     1
          N   ELEVATION [L]  XSECTAREA [L2]     VOLUME [L3] WET. PERIM. [L]   TOP WIDTH [L] SURF. AREA [L2]
 ---------- --------------- --------------- --------------- --------------- --------------- ---------------
          1   0.6500000        0.000000        0.000000        500.0000        500.0000        250000.0    
          2   0.6500010       0.5000000E-03   0.2500000        500.0000        500.0000        250000.0    
          3    1.150001        250.0005        125000.3        500.0000        500.0000        250000.0    
          4    1.650001        500.0006        250000.3        500.0000        500.0000        250000.0    
          5    2.150001        750.0007        375000.3        500.0000        500.0000        250000.0    
          6    2.650001        1000.001        500000.4        500.0000        500.0000        250000.0    
          7    3.150001        1250.001        625000.4        500.0000        500.0000        250000.0    
          8    3.650002        1500.001        750000.4        500.0000        500.0000        250000.0    
          9    4.150002        1750.001        875000.4        500.0000        500.0000        250000.0    
         10    4.650002        2000.001        1000000.        500.0000        500.0000        250000.0    
         11    5.150002        2250.001        1125000.        500.0000        500.0000        250000.0    
         12    5.650000        2500.000        1250000.        500.0000        500.0000        250000.0    
         13    5.650001        2500.001        1250000.        500.0000        500.0000        250000.0    
         14    15.65000        7500.000        3750000.        500.0000        500.0000        250000.0    

 REACH   =    50
 LAYSTR  =     1
 LAYEND  =     1
          N   ELEVATION [L]  XSECTAREA [L2]     VOLUME [L3] WET. PERIM. [L]   TOP WIDTH [L] SURF. AREA [L2]
 ---------- --------------- --------------- --------------- --------------- --------------- ---------------
          1   0.6500000        0.000000        0.000000        500.0000        500.0000        250000.0    
          2   0.6500010       0.5000000E-03   0.2500000        500.0000        500.0000        250000.0    
          3    1.150001        250.0005        125000.3        500.0000        500.0000        250000.0    
          4    1.650001        500.0006        250000.3        500.0000        500.0000        250000.0    
          5    2.150001        750.0007        375000.3        500.0000        500.0000        250000.0    
          6    2.650001        1000.001        500000.4        500.0000        500.0000        250000.0    
          7    3.150001        1250.001        625000.4        500.0000        500.0000        250000.0    
          8    3.650002        1500.001        750000.4        500.0000        500.0000        250000.0    
          9    4.150002        1750.001        875000.4        500.0000        500.0000        250000.0    
         10    4.650002        2000.001        1000000.        500.0000        500.0000        250000.0    
         11    5.150002        2250.001        1125000.        500.0000        500.0000        250000.0    
         12    5.650000        2500.000        1250000.        500.0000        500.0000        250000.0    
         13    5.650001        2500.001        1250000.        500.0000        500.0000        250000.0    
         14    15.65000        7500.000        3750000.        500.0000        500.0000        250000.0    

 REACH   =    51
 LAYSTR  =     1
 LAYEND  =     1
          N   ELEVATION [L]  XSECTAREA [L2]     VOLUME [L3] WET. PERIM. [L]   TOP WIDTH [L] SURF. AREA [L2]
 ---------- --------------- --------------- --------------- --------------- --------------- ---------------
          1   0.6500000        0.000000        0.000000        500.0000        500.0000        250000.0    
          2   0.6500010       0.5000000E-03   0.2500000        500.0000        500.0000        250000.0    
          3    1.150001        250.0005        125000.3        500.0000        500.0000        250000.0    
          4    1.650001        500.0006        250000.3        500.0000        500.0000        250000.0    
          5    2.150001        750.0007        375000.3        500.0000        500.0000        250000.0    
          6    2.650001        1000.001        500000.4        500.0000        500.0000        250000.0    
          7    3.150001        1250.001        625000.4        500.0000        500.0000        250000.0    
          8    3.650002        1500.001        750000.4        500.0000        500.0000        250000.0    
          9    4.150002        1750.001        875000.4        500.0000        500.0000        250000.0    
         10    4.650002        2000.001        1000000.        500.0000        500.0000        250000.0    
         11    5.150002        2250.001        1125000.        500.0000        500.0000        250000.0    
         12    5.650000        2500.000        1250000.        500.0000        500.0000        250000.0    
         13    5.650001        2500.001        1250000.        500.0000        500.0000        250000.0    
         14    15.65000        7500.000        3750000.        500.0000        500.0000        250000.0    

 REACH   =    52
 LAYSTR  =     1
 LAYEND  =     1
          N   ELEVATION [L]  XSECTAREA [L2]     VOLUME [L3] WET. PERIM. [L]   TOP WIDTH [L] SURF. AREA [L2]
 ---------- --------------- --------------- --------------- --------------- --------------- ---------------
          1   0.6500000        0.000000        0.000000        500.0000        500.0000        250000.0    
          2   0.6500010       0.5000000E-03   0.2500000        500.0000        500.0000        250000.0    
          3    1.150001        250.0005        125000.3        500.0000        500.0000        250000.0    
          4    1.650001        500.0006        250000.3        500.0000        500.0000        250000.0    
          5    2.150001        750.0007        375000.3        500.0000        500.0000        250000.0    
          6    2.650001        1000.001        500000.4        500.0000        500.0000        250000.0    
          7    3.150001        1250.001        625000.4        500.0000        500.0000        250000.0    
          8    3.650002        1500.001        750000.4        500.0000        500.0000        250000.0    
          9    4.150002        1750.001        875000.4        500.0000        500.0000        250000.0    
         10    4.650002        2000.001        1000000.        500.0000        500.0000        250000.0    
         11    5.150002        2250.001        1125000.        500.0000        500.0000        250000.0    
         12    5.650000        2500.000        1250000.        500.0000        500.0000        250000.0    
         13    5.650001        2500.001        1250000.        500.0000        500.0000        250000.0    
         14    15.65000        7500.000        3750000.        500.0000        500.0000        250000.0    

 REACH   =    53
 LAYSTR  =     1
 LAYEND  =     1
          N   ELEVATION [L]  XSECTAREA [L2]     VOLUME [L3] WET. PERIM. [L]   TOP WIDTH [L] SURF. AREA [L2]
 ---------- --------------- --------------- --------------- --------------- --------------- ---------------
          1   0.6500000        0.000000        0.000000        500.0000        500.0000        250000.0    
          2   0.6500010       0.5000000E-03   0.2500000        500.0000        500.0000        250000.0    
          3    1.150001        250.0005        125000.3        500.0000        500.0000        250000.0    
          4    1.650001        500.0006        250000.3        500.0000        500.0000        250000.0    
          5    2.150001        750.0007        375000.3        500.0000        500.0000        250000.0    
          6    2.650001        1000.001        500000.4        500.0000        500.0000        250000.0    
          7    3.150001        1250.001        625000.4        500.0000        500.0000        250000.0    
          8    3.650002        1500.001        750000.4        500.0000        500.0000        250000.0    
          9    4.150002        1750.001        875000.4        500.0000        500.0000        250000.0    
         10    4.650002        2000.001        1000000.        500.0000        500.0000        250000.0    
         11    5.150002        2250.001        1125000.        500.0000        500.0000        250000.0    
         12    5.650000        2500.000        1250000.        500.0000        500.0000        250000.0    
         13    5.650001        2500.001        1250000.        500.0000        500.0000        250000.0    
         14    15.65000        7500.000        3750000.        500.0000        500.0000        250000.0    

 REACH   =    54
 LAYSTR  =     1
 LAYEND  =     1
          N   ELEVATION [L]  XSECTAREA [L2]     VOLUME [L3] WET. PERIM. [L]   TOP WIDTH [L] SURF. AREA [L2]
 ---------- --------------- --------------- --------------- --------------- --------------- ---------------
          1   0.6500000        0.000000        0.000000        500.0000        500.0000        250000.0    
          2   0.6500010       0.5000000E-03   0.2500000        500.0000        500.0000        250000.0    
          3    1.150001        250.0005        125000.3        500.0000        500.0000        250000.0    
          4    1.650001        500.0006        250000.3        500.0000        500.0000        250000.0    
          5    2.150001        750.0007        375000.3        500.0000        500.0000        250000.0    
          6    2.650001        1000.001        500000.4        500.0000        500.0000        250000.0    
          7    3.150001        1250.001        625000.4        500.0000        500.0000        250000.0    
          8    3.650002        1500.001        750000.4        500.0000        500.0000        250000.0    
          9    4.150002        1750.001        875000.4        500.0000        500.0000        250000.0    
         10    4.650002        2000.001        1000000.        500.0000        500.0000        250000.0    
         11    5.150002        2250.001        1125000.        500.0000        500.0000        250000.0    
         12    5.650000        2500.000        1250000.        500.0000        500.0000        250000.0    
         13    5.650001        2500.001        1250000.        500.0000        500.0000        250000.0    
         14    15.65000        7500.000        3750000.        500.0000        500.0000        250000.0    

 REACH   =    55
 LAYSTR  =     1
 LAYEND  =     1
          N   ELEVATION [L]  XSECTAREA [L2]     VOLUME [L3] WET. PERIM. [L]   TOP WIDTH [L] SURF. AREA [L2]
 ---------- --------------- --------------- --------------- --------------- --------------- ---------------
          1   0.6500000        0.000000        0.000000        500.0000        500.0000        250000.0    
          2   0.6500010       0.5000000E-03   0.2500000        500.0000        500.0000        250000.0    
          3    1.150001        250.0005        125000.3        500.0000        500.0000        250000.0    
          4    1.650001        500.0006        250000.3        500.0000        500.0000        250000.0    
          5    2.150001        750.0007        375000.3        500.0000        500.0000        250000.0    
          6    2.650001        1000.001        500000.4        500.0000        500.0000        250000.0    
          7    3.150001        1250.001        625000.4        500.0000        500.0000        250000.0    
          8    3.650002        1500.001        750000.4        500.0000        500.0000        250000.0    
          9    4.150002        1750.001        875000.4        500.0000        500.0000        250000.0    
         10    4.650002        2000.001        1000000.        500.0000        500.0000        250000.0    
         11    5.150002        2250.001        1125000.        500.0000        500.0000        250000.0    
         12    5.650000        2500.000        1250000.        500.0000        500.0000        250000.0    
         13    5.650001        2500.001        1250000.        500.0000        500.0000        250000.0    
         14    15.65000        7500.000        3750000.        500.0000        500.0000        250000.0    

 REACH   =    56
 LAYSTR  =     1
 LAYEND  =     1
          N   ELEVATION [L]  XSECTAREA [L2]     VOLUME [L3] WET. PERIM. [L]   TOP WIDTH [L] SURF. AREA [L2]
 ---------- --------------- --------------- --------------- --------------- --------------- ---------------
          1   0.5500000        0.000000        0.000000        500.0000        500.0000        250000.0    
          2   0.5500010       0.5000000E-03   0.2500000        500.0000        500.0000        250000.0    
          3    1.050001        250.0005        125000.3        500.0000        500.0000        250000.0    
          4    1.550001        500.0006        250000.3        500.0000        500.0000        250000.0    
          5    2.050001        750.0007        375000.3        500.0000        500.0000        250000.0    
          6    2.550001        1000.001        500000.4        500.0000        500.0000        250000.0    
          7    3.050002        1250.001        625000.4        500.0000        500.0000        250000.0    
          8    3.550002        1500.001        750000.4        500.0000        500.0000        250000.0    
          9    4.050002        1750.001        875000.4        500.0000        500.0000        250000.0    
         10    4.550002        2000.001        1000000.        500.0000        500.0000        250000.0    
         11    5.050002        2250.001        1125000.        500.0000        500.0000        250000.0    
         12    5.550000        2500.000        1250000.        500.0000        500.0000        250000.0    
         13    5.550001        2500.001        1250000.        500.0000        500.0000        250000.0    
         14    15.55000        7500.000        3750000.        500.0000        500.0000        250000.0    

 REACH   =    57
 LAYSTR  =     1
 LAYEND  =     1
          N   ELEVATION [L]  XSECTAREA [L2]     VOLUME [L3] WET. PERIM. [L]   TOP WIDTH [L] SURF. AREA [L2]
 ---------- --------------- --------------- --------------- --------------- --------------- ---------------
          1   0.5500000        0.000000        0.000000        500.0000        500.0000        250000.0    
          2   0.5500010       0.5000000E-03   0.2500000        500.0000        500.0000        250000.0    
          3    1.050001        250.0005        125000.3        500.0000        500.0000        250000.0    
          4    1.550001        500.0006        250000.3        500.0000        500.0000        250000.0    
          5    2.050001        750.0007        375000.3        500.0000        500.0000        250000.0    
          6    2.550001        1000.001        500000.4        500.0000        500.0000        250000.0    
          7    3.050002        1250.001        625000.4        500.0000        500.0000        250000.0    
          8    3.550002        1500.001        750000.4        500.0000        500.0000        250000.0    
          9    4.050002        1750.001        875000.4        500.0000        500.0000        250000.0    
         10    4.550002        2000.001        1000000.        500.0000        500.0000        250000.0    
         11    5.050002        2250.001        1125000.        500.0000        500.0000        250000.0    
         12    5.550000        2500.000        1250000.        500.0000        500.0000        250000.0    
         13    5.550001        2500.001        1250000.        500.0000        500.0000        250000.0    
         14    15.55000        7500.000        3750000.        500.0000        500.0000        250000.0    

 REACH   =    58
 LAYSTR  =     1
 LAYEND  =     1
          N   ELEVATION [L]  XSECTAREA [L2]     VOLUME [L3] WET. PERIM. [L]   TOP WIDTH [L] SURF. AREA [L2]
 ---------- --------------- --------------- --------------- --------------- --------------- ---------------
          1   0.5500000        0.000000        0.000000        500.0000        500.0000        250000.0    
          2   0.5500010       0.5000000E-03   0.2500000        500.0000        500.0000        250000.0    
          3    1.050001        250.0005        125000.3        500.0000        500.0000        250000.0    
          4    1.550001        500.0006        250000.3        500.0000        500.0000        250000.0    
          5    2.050001        750.0007        375000.3        500.0000        500.0000        250000.0    
          6    2.550001        1000.001        500000.4        500.0000        500.0000        250000.0    
          7    3.050002        1250.001        625000.4        500.0000        500.0000        250000.0    
          8    3.550002        1500.001        750000.4        500.0000        500.0000        250000.0    
          9    4.050002        1750.001        875000.4        500.0000        500.0000        250000.0    
         10    4.550002        2000.001        1000000.        500.0000        500.0000        250000.0    
         11    5.050002        2250.001        1125000.        500.0000        500.0000        250000.0    
         12    5.550000        2500.000        1250000.        500.0000        500.0000        250000.0    
         13    5.550001        2500.001        1250000.        500.0000        500.0000        250000.0    
         14    15.55000        7500.000        3750000.        500.0000        500.0000        250000.0    

 REACH   =    59
 LAYSTR  =     1
 LAYEND  =     1
          N   ELEVATION [L]  XSECTAREA [L2]     VOLUME [L3] WET. PERIM. [L]   TOP WIDTH [L] SURF. AREA [L2]
 ---------- --------------- --------------- --------------- --------------- --------------- ---------------
          1   0.5500000        0.000000        0.000000        500.0000        500.0000        250000.0    
          2   0.5500010       0.5000000E-03   0.2500000        500.0000        500.0000        250000.0    
          3    1.050001        250.0005        125000.3        500.0000        500.0000        250000.0    
          4    1.550001        500.0006        250000.3        500.0000        500.0000        250000.0    
          5    2.050001        750.0007        375000.3        500.0000        500.0000        250000.0    
          6    2.550001        1000.001        500000.4        500.0000        500.0000        250000.0    
          7    3.050002        1250.001        625000.4        500.0000        500.0000        250000.0    
          8    3.550002        1500.001        750000.4        500.0000        500.0000        250000.0    
          9    4.050002        1750.001        875000.4        500.0000        500.0000        250000.0    
         10    4.550002        2000.001        1000000.        500.0000        500.0000        250000.0    
         11    5.050002        2250.001        1125000.        500.0000        500.0000        250000.0    
         12    5.550000        2500.000        1250000.        500.0000        500.0000        250000.0    
         13    5.550001        2500.001        1250000.        500.0000        500.0000        250000.0    
         14    15.55000        7500.000        3750000.        500.0000        500.0000        250000.0    

 REACH   =    60
 LAYSTR  =     1
 LAYEND  =     1
          N   ELEVATION [L]  XSECTAREA [L2]     VOLUME [L3] WET. PERIM. [L]   TOP WIDTH [L] SURF. AREA [L2]
 ---------- --------------- --------------- --------------- --------------- --------------- ---------------
          1   0.5500000        0.000000        0.000000        500.0000        500.0000        250000.0    
          2   0.5500010       0.5000000E-03   0.2500000        500.0000        500.0000        250000.0    
          3    1.050001        250.0005        125000.3        500.0000        500.0000        250000.0    
          4    1.550001        500.0006        250000.3        500.0000        500.0000        250000.0    
          5    2.050001        750.0007        375000.3        500.0000        500.0000        250000.0    
          6    2.550001        1000.001        500000.4        500.0000        500.0000        250000.0    
          7    3.050002        1250.001        625000.4        500.0000        500.0000        250000.0    
          8    3.550002        1500.001        750000.4        500.0000        500.0000        250000.0    
          9    4.050002        1750.001        875000.4        500.0000        500.0000        250000.0    
         10    4.550002        2000.001        1000000.        500.0000        500.0000        250000.0    
         11    5.050002        2250.001        1125000.        500.0000        500.0000        250000.0    
         12    5.550000        2500.000        1250000.        500.0000        500.0000        250000.0    
         13    5.550001        2500.001        1250000.        500.0000        500.0000        250000.0    
         14    15.55000        7500.000        3750000.        500.0000        500.0000        250000.0    

 REACH   =    61
 LAYSTR  =     1
 LAYEND  =     1
          N   ELEVATION [L]  XSECTAREA [L2]     VOLUME [L3] WET. PERIM. [L]   TOP WIDTH [L] SURF. AREA [L2]
 ---------- --------------- --------------- --------------- --------------- --------------- ---------------
          1   0.5500000        0.000000        0.000000        500.0000        500.0000        250000.0    
          2   0.5500010       0.5000000E-03   0.2500000        500.0000        500.0000        250000.0    
          3    1.050001        250.0005        125000.3        500.0000        500.0000        250000.0    
          4    1.550001        500.0006        250000.3        500.0000        500.0000        250000.0    
          5    2.050001        750.0007        375000.3        500.0000        500.0000        250000.0    
          6    2.550001        1000.001        500000.4        500.0000        500.0000        250000.0    
          7    3.050002        1250.001        625000.4        500.0000        500.0000        250000.0    
          8    3.550002        1500.001        750000.4        500.0000        500.0000        250000.0    
          9    4.050002        1750.001        875000.4        500.0000        500.0000        250000.0    
         10    4.550002        2000.001        1000000.        500.0000        500.0000        250000.0    
         11    5.050002        2250.001        1125000.        500.0000        500.0000        250000.0    
         12    5.550000        2500.000        1250000.        500.0000        500.0000        250000.0    
         13    5.550001        2500.001        1250000.        500.0000        500.0000        250000.0    
         14    15.55000        7500.000        3750000.        500.0000        500.0000        250000.0    

 REACH   =    62
 LAYSTR  =     1
 LAYEND  =     1
          N   ELEVATION [L]  XSECTAREA [L2]     VOLUME [L3] WET. PERIM. [L]   TOP WIDTH [L] SURF. AREA [L2]
 ---------- --------------- --------------- --------------- --------------- --------------- ---------------
          1   0.5500000        0.000000        0.000000        500.0000        500.0000        250000.0    
          2   0.5500010       0.5000000E-03   0.2500000        500.0000        500.0000        250000.0    
          3    1.050001        250.0005        125000.3        500.0000        500.0000        250000.0    
          4    1.550001        500.0006        250000.3        500.0000        500.0000        250000.0    
          5    2.050001        750.0007        375000.3        500.0000        500.0000        250000.0    
          6    2.550001        1000.001        500000.4        500.0000        500.0000        250000.0    
          7    3.050002        1250.001        625000.4        500.0000        500.0000        250000.0    
          8    3.550002        1500.001        750000.4        500.0000        500.0000        250000.0    
          9    4.050002        1750.001        875000.4        500.0000        500.0000        250000.0    
         10    4.550002        2000.001        1000000.        500.0000        500.0000        250000.0    
         11    5.050002        2250.001        1125000.        500.0000        500.0000        250000.0    
         12    5.550000        2500.000        1250000.        500.0000        500.0000        250000.0    
         13    5.550001        2500.001        1250000.        500.0000        500.0000        250000.0    
         14    15.55000        7500.000        3750000.        500.0000        500.0000        250000.0    

 REACH   =    63
 LAYSTR  =     1
 LAYEND  =     1
          N   ELEVATION [L]  XSECTAREA [L2]     VOLUME [L3] WET. PERIM. [L]   TOP WIDTH [L] SURF. AREA [L2]
 ---------- --------------- --------------- --------------- --------------- --------------- ---------------
          1   0.5500000        0.000000        0.000000        500.0000        500.0000        250000.0    
          2   0.5500010       0.5000000E-03   0.2500000        500.0000        500.0000        250000.0    
          3    1.050001        250.0005        125000.3        500.0000        500.0000        250000.0    
          4    1.550001        500.0006        250000.3        500.0000        500.0000        250000.0    
          5    2.050001        750.0007        375000.3        500.0000        500.0000        250000.0    
          6    2.550001        1000.001        500000.4        500.0000        500.0000        250000.0    
          7    3.050002        1250.001        625000.4        500.0000        500.0000        250000.0    
          8    3.550002        1500.001        750000.4        500.0000        500.0000        250000.0    
          9    4.050002        1750.001        875000.4        500.0000        500.0000        250000.0    
         10    4.550002        2000.001        1000000.        500.0000        500.0000        250000.0    
         11    5.050002        2250.001        1125000.        500.0000        500.0000        250000.0    
         12    5.550000        2500.000        1250000.        500.0000        500.0000        250000.0    
         13    5.550001        2500.001        1250000.        500.0000        500.0000        250000.0    
         14    15.55000        7500.000        3750000.        500.0000        500.0000        250000.0    

 REACH   =    64
 LAYSTR  =     1
 LAYEND  =     1
          N   ELEVATION [L]  XSECTAREA [L2]     VOLUME [L3] WET. PERIM. [L]   TOP WIDTH [L] SURF. AREA [L2]
 ---------- --------------- --------------- --------------- --------------- --------------- ---------------
          1   0.5500000        0.000000        0.000000        500.0000        500.0000        250000.0    
          2   0.5500010       0.5000000E-03   0.2500000        500.0000        500.0000        250000.0    
          3    1.050001        250.0005        125000.3        500.0000        500.0000        250000.0    
          4    1.550001        500.0006        250000.3        500.0000        500.0000        250000.0    
          5    2.050001        750.0007        375000.3        500.0000        500.0000        250000.0    
          6    2.550001        1000.001        500000.4        500.0000        500.0000        250000.0    
          7    3.050002        1250.001        625000.4        500.0000        500.0000        250000.0    
          8    3.550002        1500.001        750000.4        500.0000        500.0000        250000.0    
          9    4.050002        1750.001        875000.4        500.0000        500.0000        250000.0    
         10    4.550002        2000.001        1000000.        500.0000        500.0000        250000.0    
         11    5.050002        2250.001        1125000.        500.0000        500.0000        250000.0    
         12    5.550000        2500.000        1250000.        500.0000        500.0000        250000.0    
         13    5.550001        2500.001        1250000.        500.0000        500.0000        250000.0    
         14    15.55000        7500.000        3750000.        500.0000        500.0000        250000.0    

 REACH   =    65
 LAYSTR  =     1
 LAYEND  =     1
          N   ELEVATION [L]  XSECTAREA [L2]     VOLUME [L3] WET. PERIM. [L]   TOP WIDTH [L] SURF. AREA [L2]
 ---------- --------------- --------------- --------------- --------------- --------------- ---------------
          1   0.5500000        0.000000        0.000000        500.0000        500.0000        250000.0    
          2   0.5500010       0.5000000E-03   0.2500000        500.0000        500.0000        250000.0    
          3    1.050001        250.0005        125000.3        500.0000        500.0000        250000.0    
          4    1.550001        500.0006        250000.3        500.0000        500.0000        250000.0    
          5    2.050001        750.0007        375000.3        500.0000        500.0000        250000.0    
          6    2.550001        1000.001        500000.4        500.0000        500.0000        250000.0    
          7    3.050002        1250.001        625000.4        500.0000        500.0000        250000.0    
          8    3.550002        1500.001        750000.4        500.0000        500.0000        250000.0    
          9    4.050002        1750.001        875000.4        500.0000        500.0000        250000.0    
         10    4.550002        2000.001        1000000.        500.0000        500.0000        250000.0    
         11    5.050002        2250.001        1125000.        500.0000        500.0000        250000.0    
         12    5.550000        2500.000        1250000.        500.0000        500.0000        250000.0    
         13    5.550001        2500.001        1250000.        500.0000        500.0000        250000.0    
         14    15.55000        7500.000        3750000.        500.0000        500.0000        250000.0    

 REACH   =    66
 LAYSTR  =     1
 LAYEND  =     1
          N   ELEVATION [L]  XSECTAREA [L2]     VOLUME [L3] WET. PERIM. [L]   TOP WIDTH [L] SURF. AREA [L2]
 ---------- --------------- --------------- --------------- --------------- --------------- ---------------
          1   0.5500000        0.000000        0.000000        500.0000        500.0000        250000.0    
          2   0.5500010       0.5000000E-03   0.2500000        500.0000        500.0000        250000.0    
          3    1.050001        250.0005        125000.3        500.0000        500.0000        250000.0    
          4    1.550001        500.0006        250000.3        500.0000        500.0000        250000.0    
          5    2.050001        750.0007        375000.3        500.0000        500.0000        250000.0    
          6    2.550001        1000.001        500000.4        500.0000        500.0000        250000.0    
          7    3.050002        1250.001        625000.4        500.0000        500.0000        250000.0    
          8    3.550002        1500.001        750000.4        500.0000        500.0000        250000.0    
          9    4.050002        1750.001        875000.4        500.0000        500.0000        250000.0    
         10    4.550002        2000.001        1000000.        500.0000        500.0000        250000.0    
         11    5.050002        2250.001        1125000.        500.0000        500.0000        250000.0    
         12    5.550000        2500.000        1250000.        500.0000        500.0000        250000.0    
         13    5.550001        2500.001        1250000.        500.0000        500.0000        250000.0    
         14    15.55000        7500.000        3750000.        500.0000        500.0000        250000.0    

 REACH   =    67
 LAYSTR  =     1
 LAYEND  =     1
          N   ELEVATION [L]  XSECTAREA [L2]     VOLUME [L3] WET. PERIM. [L]   TOP WIDTH [L] SURF. AREA [L2]
 ---------- --------------- --------------- --------------- --------------- --------------- ---------------
          1   0.4500000        0.000000        0.000000        500.0000        500.0000        250000.0    
          2   0.4500010       0.5000000E-03   0.2500000        500.0000        500.0000        250000.0    
          3   0.9500011        250.0005        125000.3        500.0000        500.0000        250000.0    
          4    1.450001        500.0006        250000.3        500.0000        500.0000        250000.0    
          5    1.950001        750.0007        375000.3        500.0000        500.0000        250000.0    
          6    2.450001        1000.001        500000.4        500.0000        500.0000        250000.0    
          7    2.950001        1250.001        625000.4        500.0000        500.0000        250000.0    
          8    3.450002        1500.001        750000.4        500.0000        500.0000        250000.0    
          9    3.950002        1750.001        875000.4        500.0000        500.0000        250000.0    
         10    4.450002        2000.001        1000000.        500.0000        500.0000        250000.0    
         11    4.950002        2250.001        1125000.        500.0000        500.0000        250000.0    
         12    5.450000        2500.000        1250000.        500.0000        500.0000        250000.0    
         13    5.450001        2500.001        1250000.        500.0000        500.0000        250000.0    
         14    15.45000        7500.000        3750000.        500.0000        500.0000        250000.0    

 REACH   =    68
 LAYSTR  =     1
 LAYEND  =     1
          N   ELEVATION [L]  XSECTAREA [L2]     VOLUME [L3] WET. PERIM. [L]   TOP WIDTH [L] SURF. AREA [L2]
 ---------- --------------- --------------- --------------- --------------- --------------- ---------------
          1   0.4500000        0.000000        0.000000        500.0000        500.0000        250000.0    
          2   0.4500010       0.5000000E-03   0.2500000        500.0000        500.0000        250000.0    
          3   0.9500011        250.0005        125000.3        500.0000        500.0000        250000.0    
          4    1.450001        500.0006        250000.3        500.0000        500.0000        250000.0    
          5    1.950001        750.0007        375000.3        500.0000        500.0000        250000.0    
          6    2.450001        1000.001        500000.4        500.0000        500.0000        250000.0    
          7    2.950001        1250.001        625000.4        500.0000        500.0000        250000.0    
          8    3.450002        1500.001        750000.4        500.0000        500.0000        250000.0    
          9    3.950002        1750.001        875000.4        500.0000        500.0000        250000.0    
         10    4.450002        2000.001        1000000.        500.0000        500.0000        250000.0    
         11    4.950002        2250.001        1125000.        500.0000        500.0000        250000.0    
         12    5.450000        2500.000        1250000.        500.0000        500.0000        250000.0    
         13    5.450001        2500.001        1250000.        500.0000        500.0000        250000.0    
         14    15.45000        7500.000        3750000.        500.0000        500.0000        250000.0    

 REACH   =    69
 LAYSTR  =     1
 LAYEND  =     1
          N   ELEVATION [L]  XSECTAREA [L2]     VOLUME [L3] WET. PERIM. [L]   TOP WIDTH [L] SURF. AREA [L2]
 ---------- --------------- --------------- --------------- --------------- --------------- ---------------
          1   0.4500000        0.000000        0.000000        500.0000        500.0000        250000.0    
          2   0.4500010       0.5000000E-03   0.2500000        500.0000        500.0000        250000.0    
          3   0.9500011        250.0005        125000.3        500.0000        500.0000        250000.0    
          4    1.450001        500.0006        250000.3        500.0000        500.0000        250000.0    
          5    1.950001        750.0007        375000.3        500.0000        500.0000        250000.0    
          6    2.450001        1000.001        500000.4        500.0000        500.0000        250000.0    
          7    2.950001        1250.001        625000.4        500.0000        500.0000        250000.0    
          8    3.450002        1500.001        750000.4        500.0000        500.0000        250000.0    
          9    3.950002        1750.001        875000.4        500.0000        500.0000        250000.0    
         10    4.450002        2000.001        1000000.        500.0000        500.0000        250000.0    
         11    4.950002        2250.001        1125000.        500.0000        500.0000        250000.0    
         12    5.450000        2500.000        1250000.        500.0000        500.0000        250000.0    
         13    5.450001        2500.001        1250000.        500.0000        500.0000        250000.0    
         14    15.45000        7500.000        3750000.        500.0000        500.0000        250000.0    

 REACH   =    70
 LAYSTR  =     1
 LAYEND  =     1
          N   ELEVATION [L]  XSECTAREA [L2]     VOLUME [L3] WET. PERIM. [L]   TOP WIDTH [L] SURF. AREA [L2]
 ---------- --------------- --------------- --------------- --------------- --------------- ---------------
          1   0.4500000        0.000000        0.000000        500.0000        500.0000        250000.0    
          2   0.4500010       0.5000000E-03   0.2500000        500.0000        500.0000        250000.0    
          3   0.9500011        250.0005        125000.3        500.0000        500.0000        250000.0    
          4    1.450001        500.0006        250000.3        500.0000        500.0000        250000.0    
          5    1.950001        750.0007        375000.3        500.0000        500.0000        250000.0    
          6    2.450001        1000.001        500000.4        500.0000        500.0000        250000.0    
          7    2.950001        1250.001        625000.4        500.0000        500.0000        250000.0    
          8    3.450002        1500.001        750000.4        500.0000        500.0000        250000.0    
          9    3.950002        1750.001        875000.4        500.0000        500.0000        250000.0    
         10    4.450002        2000.001        1000000.        500.0000        500.0000        250000.0    
         11    4.950002        2250.001        1125000.        500.0000        500.0000        250000.0    
         12    5.450000        2500.000        1250000.        500.0000        500.0000        250000.0    
         13    5.450001        2500.001        1250000.        500.0000        500.0000        250000.0    
         14    15.45000        7500.000        3750000.        500.0000        500.0000        250000.0    

 REACH   =    71
 LAYSTR  =     1
 LAYEND  =     1
          N   ELEVATION [L]  XSECTAREA [L2]     VOLUME [L3] WET. PERIM. [L]   TOP WIDTH [L] SURF. AREA [L2]
 ---------- --------------- --------------- --------------- --------------- --------------- ---------------
          1   0.4500000        0.000000        0.000000        500.0000        500.0000        250000.0    
          2   0.4500010       0.5000000E-03   0.2500000        500.0000        500.0000        250000.0    
          3   0.9500011        250.0005        125000.3        500.0000        500.0000        250000.0    
          4    1.450001        500.0006        250000.3        500.0000        500.0000        250000.0    
          5    1.950001        750.0007        375000.3        500.0000        500.0000        250000.0    
          6    2.450001        1000.001        500000.4        500.0000        500.0000        250000.0    
          7    2.950001        1250.001        625000.4        500.0000        500.0000        250000.0    
          8    3.450002        1500.001        750000.4        500.0000        500.0000        250000.0    
          9    3.950002        1750.001        875000.4        500.0000        500.0000        250000.0    
         10    4.450002        2000.001        1000000.        500.0000        500.0000        250000.0    
         11    4.950002        2250.001        1125000.        500.0000        500.0000        250000.0    
         12    5.450000        2500.000        1250000.        500.0000        500.0000        250000.0    
         13    5.450001        2500.001        1250000.        500.0000        500.0000        250000.0    
         14    15.45000        7500.000        3750000.        500.0000        500.0000        250000.0    

 REACH   =    72
 LAYSTR  =     1
 LAYEND  =     1
          N   ELEVATION [L]  XSECTAREA [L2]     VOLUME [L3] WET. PERIM. [L]   TOP WIDTH [L] SURF. AREA [L2]
 ---------- --------------- --------------- --------------- --------------- --------------- ---------------
          1   0.4500000        0.000000        0.000000        500.0000        500.0000        250000.0    
          2   0.4500010       0.5000000E-03   0.2500000        500.0000        500.0000        250000.0    
          3   0.9500011        250.0005        125000.3        500.0000        500.0000        250000.0    
          4    1.450001        500.0006        250000.3        500.0000        500.0000        250000.0    
          5    1.950001        750.0007        375000.3        500.0000        500.0000        250000.0    
          6    2.450001        1000.001        500000.4        500.0000        500.0000        250000.0    
          7    2.950001        1250.001        625000.4        500.0000        500.0000        250000.0    
          8    3.450002        1500.001        750000.4        500.0000        500.0000        250000.0    
          9    3.950002        1750.001        875000.4        500.0000        500.0000        250000.0    
         10    4.450002        2000.001        1000000.        500.0000        500.0000        250000.0    
         11    4.950002        2250.001        1125000.        500.0000        500.0000        250000.0    
         12    5.450000        2500.000        1250000.        500.0000        500.0000        250000.0    
         13    5.450001        2500.001        1250000.        500.0000        500.0000        250000.0    
         14    15.45000        7500.000        3750000.        500.0000        500.0000        250000.0    

 REACH   =    73
 LAYSTR  =     1
 LAYEND  =     1
          N   ELEVATION [L]  XSECTAREA [L2]     VOLUME [L3] WET. PERIM. [L]   TOP WIDTH [L] SURF. AREA [L2]
 ---------- --------------- --------------- --------------- --------------- --------------- ---------------
          1   0.4500000        0.000000        0.000000        500.0000        500.0000        250000.0    
          2   0.4500010       0.5000000E-03   0.2500000        500.0000        500.0000        250000.0    
          3   0.9500011        250.0005        125000.3        500.0000        500.0000        250000.0    
          4    1.450001        500.0006        250000.3        500.0000        500.0000        250000.0    
          5    1.950001        750.0007        375000.3        500.0000        500.0000        250000.0    
          6    2.450001        1000.001        500000.4        500.0000        500.0000        250000.0    
          7    2.950001        1250.001        625000.4        500.0000        500.0000        250000.0    
          8    3.450002        1500.001        750000.4        500.0000        500.0000        250000.0    
          9    3.950002        1750.001        875000.4        500.0000        500.0000        250000.0    
         10    4.450002        2000.001        1000000.        500.0000        500.0000        250000.0    
         11    4.950002        2250.001        1125000.        500.0000        500.0000        250000.0    
         12    5.450000        2500.000        1250000.        500.0000        500.0000        250000.0    
         13    5.450001        2500.001        1250000.        500.0000        500.0000        250000.0    
         14    15.45000        7500.000        3750000.        500.0000        500.0000        250000.0    

 REACH   =    74
 LAYSTR  =     1
 LAYEND  =     1
          N   ELEVATION [L]  XSECTAREA [L2]     VOLUME [L3] WET. PERIM. [L]   TOP WIDTH [L] SURF. AREA [L2]
 ---------- --------------- --------------- --------------- --------------- --------------- ---------------
          1   0.4500000        0.000000        0.000000        500.0000        500.0000        250000.0    
          2   0.4500010       0.5000000E-03   0.2500000        500.0000        500.0000        250000.0    
          3   0.9500011        250.0005        125000.3        500.0000        500.0000        250000.0    
          4    1.450001        500.0006        250000.3        500.0000        500.0000        250000.0    
          5    1.950001        750.0007        375000.3        500.0000        500.0000        250000.0    
          6    2.450001        1000.001        500000.4        500.0000        500.0000        250000.0    
          7    2.950001        1250.001        625000.4        500.0000        500.0000        250000.0    
          8    3.450002        1500.001        750000.4        500.0000        500.0000        250000.0    
          9    3.950002        1750.001        875000.4        500.0000        500.0000        250000.0    
         10    4.450002        2000.001        1000000.        500.0000        500.0000        250000.0    
         11    4.950002        2250.001        1125000.        500.0000        500.0000        250000.0    
         12    5.450000        2500.000        1250000.        500.0000        500.0000        250000.0    
         13    5.450001        2500.001        1250000.        500.0000        500.0000        250000.0    
         14    15.45000        7500.000        3750000.        500.0000        500.0000        250000.0    

 REACH   =    75
 LAYSTR  =     1
 LAYEND  =     1
          N   ELEVATION [L]  XSECTAREA [L2]     VOLUME [L3] WET. PERIM. [L]   TOP WIDTH [L] SURF. AREA [L2]
 ---------- --------------- --------------- --------------- --------------- --------------- ---------------
          1   0.4500000        0.000000        0.000000        500.0000        500.0000        250000.0    
          2   0.4500010       0.5000000E-03   0.2500000        500.0000        500.0000        250000.0    
          3   0.9500011        250.0005        125000.3        500.0000        500.0000        250000.0    
          4    1.450001        500.0006        250000.3        500.0000        500.0000        250000.0    
          5    1.950001        750.0007        375000.3        500.0000        500.0000        250000.0    
          6    2.450001        1000.001        500000.4        500.0000        500.0000        250000.0    
          7    2.950001        1250.001        625000.4        500.0000        500.0000        250000.0    
          8    3.450002        1500.001        750000.4        500.0000        500.0000        250000.0    
          9    3.950002        1750.001        875000.4        500.0000        500.0000        250000.0    
         10    4.450002        2000.001        1000000.        500.0000        500.0000        250000.0    
         11    4.950002        2250.001        1125000.        500.0000        500.0000        250000.0    
         12    5.450000        2500.000        1250000.        500.0000        500.0000        250000.0    
         13    5.450001        2500.001        1250000.        500.0000        500.0000        250000.0    
         14    15.45000        7500.000        3750000.        500.0000        500.0000        250000.0    

 REACH   =    76
 LAYSTR  =     1
 LAYEND  =     1
          N   ELEVATION [L]  XSECTAREA [L2]     VOLUME [L3] WET. PERIM. [L]   TOP WIDTH [L] SURF. AREA [L2]
 ---------- --------------- --------------- --------------- --------------- --------------- ---------------
          1   0.4500000        0.000000        0.000000        500.0000        500.0000        250000.0    
          2   0.4500010       0.5000000E-03   0.2500000        500.0000        500.0000        250000.0    
          3   0.9500011        250.0005        125000.3        500.0000        500.0000        250000.0    
          4    1.450001        500.0006        250000.3        500.0000        500.0000        250000.0    
          5    1.950001        750.0007        375000.3        500.0000        500.0000        250000.0    
          6    2.450001        1000.001        500000.4        500.0000        500.0000        250000.0    
          7    2.950001        1250.001        625000.4        500.0000        500.0000        250000.0    
          8    3.450002        1500.001        750000.4        500.0000        500.0000        250000.0    
          9    3.950002        1750.001        875000.4        500.0000        500.0000        250000.0    
         10    4.450002        2000.001        1000000.        500.0000        500.0000        250000.0    
         11    4.950002        2250.001        1125000.        500.0000        500.0000        250000.0    
         12    5.450000        2500.000        1250000.        500.0000        500.0000        250000.0    
         13    5.450001        2500.001        1250000.        500.0000        500.0000        250000.0    
         14    15.45000        7500.000        3750000.        500.0000        500.0000        250000.0    

 REACH   =    77
 LAYSTR  =     1
 LAYEND  =     1
          N   ELEVATION [L]  XSECTAREA [L2]     VOLUME [L3] WET. PERIM. [L]   TOP WIDTH [L] SURF. AREA [L2]
 ---------- --------------- --------------- --------------- --------------- --------------- ---------------
          1   0.4500000        0.000000        0.000000        500.0000        500.0000        250000.0    
          2   0.4500010       0.5000000E-03   0.2500000        500.0000        500.0000        250000.0    
          3   0.9500011        250.0005        125000.3        500.0000        500.0000        250000.0    
          4    1.450001        500.0006        250000.3        500.0000        500.0000        250000.0    
          5    1.950001        750.0007        375000.3        500.0000        500.0000        250000.0    
          6    2.450001        1000.001        500000.4        500.0000        500.0000        250000.0    
          7    2.950001        1250.001        625000.4        500.0000        500.0000        250000.0    
          8    3.450002        1500.001        750000.4        500.0000        500.0000        250000.0    
          9    3.950002        1750.001        875000.4        500.0000        500.0000        250000.0    
         10    4.450002        2000.001        1000000.        500.0000        500.0000        250000.0    
         11    4.950002        2250.001        1125000.        500.0000        500.0000        250000.0    
         12    5.450000        2500.000        1250000.        500.0000        500.0000        250000.0    
         13    5.450001        2500.001        1250000.        500.0000        500.0000        250000.0    
         14    15.45000        7500.000        3750000.        500.0000        500.0000        250000.0    

 REACH   =    78
 LAYSTR  =     1
 LAYEND  =     1
          N   ELEVATION [L]  XSECTAREA [L2]     VOLUME [L3] WET. PERIM. [L]   TOP WIDTH [L] SURF. AREA [L2]
 ---------- --------------- --------------- --------------- --------------- --------------- ---------------
          1   0.3500000        0.000000        0.000000        500.0000        500.0000        250000.0    
          2   0.3500010       0.5000000E-03   0.2500000        500.0000        500.0000        250000.0    
          3   0.8500011        250.0005        125000.3        500.0000        500.0000        250000.0    
          4    1.350001        500.0006        250000.3        500.0000        500.0000        250000.0    
          5    1.850001        750.0007        375000.3        500.0000        500.0000        250000.0    
          6    2.350001        1000.001        500000.4        500.0000        500.0000        250000.0    
          7    2.850001        1250.001        625000.4        500.0000        500.0000        250000.0    
          8    3.350002        1500.001        750000.4        500.0000        500.0000        250000.0    
          9    3.850002        1750.001        875000.4        500.0000        500.0000        250000.0    
         10    4.350002        2000.001        1000000.        500.0000        500.0000        250000.0    
         11    4.850002        2250.001        1125000.        500.0000        500.0000        250000.0    
         12    5.350000        2500.000        1250000.        500.0000        500.0000        250000.0    
         13    5.350001        2500.001        1250000.        500.0000        500.0000        250000.0    
         14    15.35000        7500.000        3750000.        500.0000        500.0000        250000.0    

 REACH   =    79
 LAYSTR  =     1
 LAYEND  =     1
          N   ELEVATION [L]  XSECTAREA [L2]     VOLUME [L3] WET. PERIM. [L]   TOP WIDTH [L] SURF. AREA [L2]
 ---------- --------------- --------------- --------------- --------------- --------------- ---------------
          1   0.3500000        0.000000        0.000000        500.0000        500.0000        250000.0    
          2   0.3500010       0.5000000E-03   0.2500000        500.0000        500.0000        250000.0    
          3   0.8500011        250.0005        125000.3        500.0000        500.0000        250000.0    
          4    1.350001        500.0006        250000.3        500.0000        500.0000        250000.0    
          5    1.850001        750.0007        375000.3        500.0000        500.0000        250000.0    
          6    2.350001        1000.001        500000.4        500.0000        500.0000        250000.0    
          7    2.850001        1250.001        625000.4        500.0000        500.0000        250000.0    
          8    3.350002        1500.001        750000.4        500.0000        500.0000        250000.0    
          9    3.850002        1750.001        875000.4        500.0000        500.0000        250000.0    
         10    4.350002        2000.001        1000000.        500.0000        500.0000        250000.0    
         11    4.850002        2250.001        1125000.        500.0000        500.0000        250000.0    
         12    5.350000        2500.000        1250000.        500.0000        500.0000        250000.0    
         13    5.350001        2500.001        1250000.        500.0000        500.0000        250000.0    
         14    15.35000        7500.000        3750000.        500.0000        500.0000        250000.0    

 REACH   =    80
 LAYSTR  =     1
 LAYEND  =     1
          N   ELEVATION [L]  XSECTAREA [L2]     VOLUME [L3] WET. PERIM. [L]   TOP WIDTH [L] SURF. AREA [L2]
 ---------- --------------- --------------- --------------- --------------- --------------- ---------------
          1   0.3500000        0.000000        0.000000        500.0000        500.0000        250000.0    
          2   0.3500010       0.5000000E-03   0.2500000        500.0000        500.0000        250000.0    
          3   0.8500011        250.0005        125000.3        500.0000        500.0000        250000.0    
          4    1.350001        500.0006        250000.3        500.0000        500.0000        250000.0    
          5    1.850001        750.0007        375000.3        500.0000        500.0000        250000.0    
          6    2.350001        1000.001        500000.4        500.0000        500.0000        250000.0    
          7    2.850001        1250.001        625000.4        500.0000        500.0000        250000.0    
          8    3.350002        1500.001        750000.4        500.0000        500.0000        250000.0    
          9    3.850002        1750.001        875000.4        500.0000        500.0000        250000.0    
         10    4.350002        2000.001        1000000.        500.0000        500.0000        250000.0    
         11    4.850002        2250.001        1125000.        500.0000        500.0000        250000.0    
         12    5.350000        2500.000        1250000.        500.0000        500.0000        250000.0    
         13    5.350001        2500.001        1250000.        500.0000        500.0000        250000.0    
         14    15.35000        7500.000        3750000.        500.0000        500.0000        250000.0    

 REACH   =    81
 LAYSTR  =     1
 LAYEND  =     1
          N   ELEVATION [L]  XSECTAREA [L2]     VOLUME [L3] WET. PERIM. [L]   TOP WIDTH [L] SURF. AREA [L2]
 ---------- --------------- --------------- --------------- --------------- --------------- ---------------
          1   0.3500000        0.000000        0.000000        500.0000        500.0000        250000.0    
          2   0.3500010       0.5000000E-03   0.2500000        500.0000        500.0000        250000.0    
          3   0.8500011        250.0005        125000.3        500.0000        500.0000        250000.0    
          4    1.350001        500.0006        250000.3        500.0000        500.0000        250000.0    
          5    1.850001        750.0007        375000.3        500.0000        500.0000        250000.0    
          6    2.350001        1000.001        500000.4        500.0000        500.0000        250000.0    
          7    2.850001        1250.001        625000.4        500.0000        500.0000        250000.0    
          8    3.350002        1500.001        750000.4        500.0000        500.0000        250000.0    
          9    3.850002        1750.001        875000.4        500.0000        500.0000        250000.0    
         10    4.350002        2000.001        1000000.        500.0000        500.0000        250000.0    
         11    4.850002        2250.001        1125000.        500.0000        500.0000        250000.0    
         12    5.350000        2500.000        1250000.        500.0000        500.0000        250000.0    
         13    5.350001        2500.001        1250000.        500.0000        500.0000        250000.0    
         14    15.35000        7500.000        3750000.        500.0000        500.0000        250000.0    

 REACH   =    82
 LAYSTR  =     1
 LAYEND  =     1
          N   ELEVATION [L]  XSECTAREA [L2]     VOLUME [L3] WET. PERIM. [L]   TOP WIDTH [L] SURF. AREA [L2]
 ---------- --------------- --------------- --------------- --------------- --------------- ---------------
          1   0.3500000        0.000000        0.000000        500.0000        500.0000        250000.0    
          2   0.3500010       0.5000000E-03   0.2500000        500.0000        500.0000        250000.0    
          3   0.8500011        250.0005        125000.3        500.0000        500.0000        250000.0    
          4    1.350001        500.0006        250000.3        500.0000        500.0000        250000.0    
          5    1.850001        750.0007        375000.3        500.0000        500.0000        250000.0    
          6    2.350001        1000.001        500000.4        500.0000        500.0000        250000.0    
          7    2.850001        1250.001        625000.4        500.0000        500.0000        250000.0    
          8    3.350002        1500.001        750000.4        500.0000        500.0000        250000.0    
          9    3.850002        1750.001        875000.4        500.0000        500.0000        250000.0    
         10    4.350002        2000.001        1000000.        500.0000        500.0000        250000.0    
         11    4.850002        2250.001        1125000.        500.0000        500.0000        250000.0    
         12    5.350000        2500.000        1250000.        500.0000        500.0000        250000.0    
         13    5.350001        2500.001        1250000.        500.0000        500.0000        250000.0    
         14    15.35000        7500.000        3750000.        500.0000        500.0000        250000.0    

 REACH   =    83
 LAYSTR  =     1
 LAYEND  =     1
          N   ELEVATION [L]  XSECTAREA [L2]     VOLUME [L3] WET. PERIM. [L]   TOP WIDTH [L] SURF. AREA [L2]
 ---------- --------------- --------------- --------------- --------------- --------------- ---------------
          1   0.3500000        0.000000        0.000000        500.0000        500.0000        250000.0    
          2   0.3500010       0.5000000E-03   0.2500000        500.0000        500.0000        250000.0    
          3   0.8500011        250.0005        125000.3        500.0000        500.0000        250000.0    
          4    1.350001        500.0006        250000.3        500.0000        500.0000        250000.0    
          5    1.850001        750.0007        375000.3        500.0000        500.0000        250000.0    
          6    2.350001        1000.001        500000.4        500.0000        500.0000        250000.0    
          7    2.850001        1250.001        625000.4        500.0000        500.0000        250000.0    
          8    3.350002        1500.001        750000.4        500.0000        500.0000        250000.0    
          9    3.850002        1750.001        875000.4        500.0000        500.0000        250000.0    
         10    4.350002        2000.001        1000000.        500.0000        500.0000        250000.0    
         11    4.850002        2250.001        1125000.        500.0000        500.0000        250000.0    
         12    5.350000        2500.000        1250000.        500.0000        500.0000        250000.0    
         13    5.350001        2500.001        1250000.        500.0000        500.0000        250000.0    
         14    15.35000        7500.000        3750000.        500.0000        500.0000        250000.0    

 REACH   =    84
 LAYSTR  =     1
 LAYEND  =     1
          N   ELEVATION [L]  XSECTAREA [L2]     VOLUME [L3] WET. PERIM. [L]   TOP WIDTH [L] SURF. AREA [L2]
 ---------- --------------- --------------- --------------- --------------- --------------- ---------------
          1   0.3500000        0.000000        0.000000        500.0000        500.0000        250000.0    
          2   0.3500010       0.5000000E-03   0.2500000        500.0000        500.0000        250000.0    
          3   0.8500011        250.0005        125000.3        500.0000        500.0000        250000.0    
          4    1.350001        500.0006        250000.3        500.0000        500.0000        250000.0    
          5    1.850001        750.0007        375000.3        500.0000        500.0000        250000.0    
          6    2.350001        1000.001        500000.4        500.0000        500.0000        250000.0    
          7    2.850001        1250.001        625000.4        500.0000        500.0000        250000.0    
          8    3.350002        1500.001        750000.4        500.0000        500.0000        250000.0    
          9    3.850002        1750.001        875000.4        500.0000        500.0000        250000.0    
         10    4.350002        2000.001        1000000.        500.0000        500.0000        250000.0    
         11    4.850002        2250.001        1125000.        500.0000        500.0000        250000.0    
         12    5.350000        2500.000        1250000.        500.0000        500.0000        250000.0    
         13    5.350001        2500.001        1250000.        500.0000        500.0000        250000.0    
         14    15.35000        7500.000        3750000.        500.0000        500.0000        250000.0    

 REACH   =    85
 LAYSTR  =     1
 LAYEND  =     1
          N   ELEVATION [L]  XSECTAREA [L2]     VOLUME [L3] WET. PERIM. [L]   TOP WIDTH [L] SURF. AREA [L2]
 ---------- --------------- --------------- --------------- --------------- --------------- ---------------
          1   0.3500000        0.000000        0.000000        500.0000        500.0000        250000.0    
          2   0.3500010       0.5000000E-03   0.2500000        500.0000        500.0000        250000.0    
          3   0.8500011        250.0005        125000.3        500.0000        500.0000        250000.0    
          4    1.350001        500.0006        250000.3        500.0000        500.0000        250000.0    
          5    1.850001        750.0007        375000.3        500.0000        500.0000        250000.0    
          6    2.350001        1000.001        500000.4        500.0000        500.0000        250000.0    
          7    2.850001        1250.001        625000.4        500.0000        500.0000        250000.0    
          8    3.350002        1500.001        750000.4        500.0000        500.0000        250000.0    
          9    3.850002        1750.001        875000.4        500.0000        500.0000        250000.0    
         10    4.350002        2000.001        1000000.        500.0000        500.0000        250000.0    
         11    4.850002        2250.001        1125000.        500.0000        500.0000        250000.0    
         12    5.350000        2500.000        1250000.        500.0000        500.0000        250000.0    
         13    5.350001        2500.001        1250000.        500.0000        500.0000        250000.0    
         14    15.35000        7500.000        3750000.        500.0000        500.0000        250000.0    

 REACH   =    86
 LAYSTR  =     1
 LAYEND  =     1
          N   ELEVATION [L]  XSECTAREA [L2]     VOLUME [L3] WET. PERIM. [L]   TOP WIDTH [L] SURF. AREA [L2]
 ---------- --------------- --------------- --------------- --------------- --------------- ---------------
          1   0.3500000        0.000000        0.000000        500.0000        500.0000        250000.0    
          2   0.3500010       0.5000000E-03   0.2500000        500.0000        500.0000        250000.0    
          3   0.8500011        250.0005        125000.3        500.0000        500.0000        250000.0    
          4    1.350001        500.0006        250000.3        500.0000        500.0000        250000.0    
          5    1.850001        750.0007        375000.3        500.0000        500.0000        250000.0    
          6    2.350001        1000.001        500000.4        500.0000        500.0000        250000.0    
          7    2.850001        1250.001        625000.4        500.0000        500.0000        250000.0    
          8    3.350002        1500.001        750000.4        500.0000        500.0000        250000.0    
          9    3.850002        1750.001        875000.4        500.0000        500.0000        250000.0    
         10    4.350002        2000.001        1000000.        500.0000        500.0000        250000.0    
         11    4.850002        2250.001        1125000.        500.0000        500.0000        250000.0    
         12    5.350000        2500.000        1250000.        500.0000        500.0000        250000.0    
         13    5.350001        2500.001        1250000.        500.0000        500.0000        250000.0    
         14    15.35000        7500.000        3750000.        500.0000        500.0000        250000.0    

 REACH   =    87
 LAYSTR  =     1
 LAYEND  =     1
          N   ELEVATION [L]  XSECTAREA [L2]     VOLUME [L3] WET. PERIM. [L]   TOP WIDTH [L] SURF. AREA [L2]
 ---------- --------------- --------------- --------------- --------------- --------------- ---------------
          1   0.3500000        0.000000        0.000000        500.0000        500.0000        250000.0    
          2   0.3500010       0.5000000E-03   0.2500000        500.0000        500.0000        250000.0    
          3   0.8500011        250.0005        125000.3        500.0000        500.0000        250000.0    
          4    1.350001        500.0006        250000.3        500.0000        500.0000        250000.0    
          5    1.850001        750.0007        375000.3        500.0000        500.0000        250000.0    
          6    2.350001        1000.001        500000.4        500.0000        500.0000        250000.0    
          7    2.850001        1250.001        625000.4        500.0000        500.0000        250000.0    
          8    3.350002        1500.001        750000.4        500.0000        500.0000        250000.0    
          9    3.850002        1750.001        875000.4        500.0000        500.0000        250000.0    
         10    4.350002        2000.001        1000000.        500.0000        500.0000        250000.0    
         11    4.850002        2250.001        1125000.        500.0000        500.0000        250000.0    
         12    5.350000        2500.000        1250000.        500.0000        500.0000        250000.0    
         13    5.350001        2500.001        1250000.        500.0000        500.0000        250000.0    
         14    15.35000        7500.000        3750000.        500.0000        500.0000        250000.0    

 REACH   =    88
 LAYSTR  =     1
 LAYEND  =     1
          N   ELEVATION [L]  XSECTAREA [L2]     VOLUME [L3] WET. PERIM. [L]   TOP WIDTH [L] SURF. AREA [L2]
 ---------- --------------- --------------- --------------- --------------- --------------- ---------------
          1   0.3500000        0.000000        0.000000        500.0000        500.0000        250000.0    
          2   0.3500010       0.5000000E-03   0.2500000        500.0000        500.0000        250000.0    
          3   0.8500011        250.0005        125000.3        500.0000        500.0000        250000.0    
          4    1.350001        500.0006        250000.3        500.0000        500.0000        250000.0    
          5    1.850001        750.0007        375000.3        500.0000        500.0000        250000.0    
          6    2.350001        1000.001        500000.4        500.0000        500.0000        250000.0    
          7    2.850001        1250.001        625000.4        500.0000        500.0000        250000.0    
          8    3.350002        1500.001        750000.4        500.0000        500.0000        250000.0    
          9    3.850002        1750.001        875000.4        500.0000        500.0000        250000.0    
         10    4.350002        2000.001        1000000.        500.0000        500.0000        250000.0    
         11    4.850002        2250.001        1125000.        500.0000        500.0000        250000.0    
         12    5.350000        2500.000        1250000.        500.0000        500.0000        250000.0    
         13    5.350001        2500.001        1250000.        500.0000        500.0000        250000.0    
         14    15.35000        7500.000        3750000.        500.0000        500.0000        250000.0    

 REACH   =    89
 LAYSTR  =     1
 LAYEND  =     1
          N   ELEVATION [L]  XSECTAREA [L2]     VOLUME [L3] WET. PERIM. [L]   TOP WIDTH [L] SURF. AREA [L2]
 ---------- --------------- --------------- --------------- --------------- --------------- ---------------
          1   0.2500000        0.000000        0.000000        500.0000        500.0000        250000.0    
          2   0.2500010       0.5000000E-03   0.2500000        500.0000        500.0000        250000.0    
          3   0.7500011        250.0005        125000.3        500.0000        500.0000        250000.0    
          4    1.250001        500.0006        250000.3        500.0000        500.0000        250000.0    
          5    1.750001        750.0007        375000.3        500.0000        500.0000        250000.0    
          6    2.250001        1000.001        500000.4        500.0000        500.0000        250000.0    
          7    2.750002        1250.001        625000.4        500.0000        500.0000        250000.0    
          8    3.250002        1500.001        750000.4        500.0000        500.0000        250000.0    
          9    3.750002        1750.001        875000.4        500.0000        500.0000        250000.0    
         10    4.250002        2000.001        1000000.        500.0000        500.0000        250000.0    
         11    4.750002        2250.001        1125000.        500.0000        500.0000        250000.0    
         12    5.250000        2500.000        1250000.        500.0000        500.0000        250000.0    
         13    5.250001        2500.001        1250000.        500.0000        500.0000        250000.0    
         14    15.25000        7500.000        3750000.        500.0000        500.0000        250000.0    

 REACH   =    90
 LAYSTR  =     1
 LAYEND  =     1
          N   ELEVATION [L]  XSECTAREA [L2]     VOLUME [L3] WET. PERIM. [L]   TOP WIDTH [L] SURF. AREA [L2]
 ---------- --------------- --------------- --------------- --------------- --------------- ---------------
          1   0.2500000        0.000000        0.000000        500.0000        500.0000        250000.0    
          2   0.2500010       0.5000000E-03   0.2500000        500.0000        500.0000        250000.0    
          3   0.7500011        250.0005        125000.3        500.0000        500.0000        250000.0    
          4    1.250001        500.0006        250000.3        500.0000        500.0000        250000.0    
          5    1.750001        750.0007        375000.3        500.0000        500.0000        250000.0    
          6    2.250001        1000.001        500000.4        500.0000        500.0000        250000.0    
          7    2.750002        1250.001        625000.4        500.0000        500.0000        250000.0    
          8    3.250002        1500.001        750000.4        500.0000        500.0000        250000.0    
          9    3.750002        1750.001        875000.4        500.0000        500.0000        250000.0    
         10    4.250002        2000.001        1000000.        500.0000        500.0000        250000.0    
         11    4.750002        2250.001        1125000.        500.0000        500.0000        250000.0    
         12    5.250000        2500.000        1250000.        500.0000        500.0000        250000.0    
         13    5.250001        2500.001        1250000.        500.0000        500.0000        250000.0    
         14    15.25000        7500.000        3750000.        500.0000        500.0000        250000.0    

 REACH   =    91
 LAYSTR  =     1
 LAYEND  =     1
          N   ELEVATION [L]  XSECTAREA [L2]     VOLUME [L3] WET. PERIM. [L]   TOP WIDTH [L] SURF. AREA [L2]
 ---------- --------------- --------------- --------------- --------------- --------------- ---------------
          1   0.2500000        0.000000        0.000000        500.0000        500.0000        250000.0    
          2   0.2500010       0.5000000E-03   0.2500000        500.0000        500.0000        250000.0    
          3   0.7500011        250.0005        125000.3        500.0000        500.0000        250000.0    
          4    1.250001        500.0006        250000.3        500.0000        500.0000        250000.0    
          5    1.750001        750.0007        375000.3        500.0000        500.0000        250000.0    
          6    2.250001        1000.001        500000.4        500.0000        500.0000        250000.0    
          7    2.750002        1250.001        625000.4        500.0000        500.0000        250000.0    
          8    3.250002        1500.001        750000.4        500.0000        500.0000        250000.0    
          9    3.750002        1750.001        875000.4        500.0000        500.0000        250000.0    
         10    4.250002        2000.001        1000000.        500.0000        500.0000        250000.0    
         11    4.750002        2250.001        1125000.        500.0000        500.0000        250000.0    
         12    5.250000        2500.000        1250000.        500.0000        500.0000        250000.0    
         13    5.250001        2500.001        1250000.        500.0000        500.0000        250000.0    
         14    15.25000        7500.000        3750000.        500.0000        500.0000        250000.0    

 REACH   =    92
 LAYSTR  =     1
 LAYEND  =     1
          N   ELEVATION [L]  XSECTAREA [L2]     VOLUME [L3] WET. PERIM. [L]   TOP WIDTH [L] SURF. AREA [L2]
 ---------- --------------- --------------- --------------- --------------- --------------- ---------------
          1   0.2500000        0.000000        0.000000        500.0000        500.0000        250000.0    
          2   0.2500010       0.5000000E-03   0.2500000        500.0000        500.0000        250000.0    
          3   0.7500011        250.0005        125000.3        500.0000        500.0000        250000.0    
          4    1.250001        500.0006        250000.3        500.0000        500.0000        250000.0    
          5    1.750001        750.0007        375000.3        500.0000        500.0000        250000.0    
          6    2.250001        1000.001        500000.4        500.0000        500.0000        250000.0    
          7    2.750002        1250.001        625000.4        500.0000        500.0000        250000.0    
          8    3.250002        1500.001        750000.4        500.0000        500.0000        250000.0    
          9    3.750002        1750.001        875000.4        500.0000        500.0000        250000.0    
         10    4.250002        2000.001        1000000.        500.0000        500.0000        250000.0    
         11    4.750002        2250.001        1125000.        500.0000        500.0000        250000.0    
         12    5.250000        2500.000        1250000.        500.0000        500.0000        250000.0    
         13    5.250001        2500.001        1250000.        500.0000        500.0000        250000.0    
         14    15.25000        7500.000        3750000.        500.0000        500.0000        250000.0    

 REACH   =    93
 LAYSTR  =     1
 LAYEND  =     1
          N   ELEVATION [L]  XSECTAREA [L2]     VOLUME [L3] WET. PERIM. [L]   TOP WIDTH [L] SURF. AREA [L2]
 ---------- --------------- --------------- --------------- --------------- --------------- ---------------
          1   0.2500000        0.000000        0.000000        500.0000        500.0000        250000.0    
          2   0.2500010       0.5000000E-03   0.2500000        500.0000        500.0000        250000.0    
          3   0.7500011        250.0005        125000.3        500.0000        500.0000        250000.0    
          4    1.250001        500.0006        250000.3        500.0000        500.0000        250000.0    
          5    1.750001        750.0007        375000.3        500.0000        500.0000        250000.0    
          6    2.250001        1000.001        500000.4        500.0000        500.0000        250000.0    
          7    2.750002        1250.001        625000.4        500.0000        500.0000        250000.0    
          8    3.250002        1500.001        750000.4        500.0000        500.0000        250000.0    
          9    3.750002        1750.001        875000.4        500.0000        500.0000        250000.0    
         10    4.250002        2000.001        1000000.        500.0000        500.0000        250000.0    
         11    4.750002        2250.001        1125000.        500.0000        500.0000        250000.0    
         12    5.250000        2500.000        1250000.        500.0000        500.0000        250000.0    
         13    5.250001        2500.001        1250000.        500.0000        500.0000        250000.0    
         14    15.25000        7500.000        3750000.        500.0000        500.0000        250000.0    

 REACH   =    94
 LAYSTR  =     1
 LAYEND  =     1
          N   ELEVATION [L]  XSECTAREA [L2]     VOLUME [L3] WET. PERIM. [L]   TOP WIDTH [L] SURF. AREA [L2]
 ---------- --------------- --------------- --------------- --------------- --------------- ---------------
          1   0.2500000        0.000000        0.000000        500.0000        500.0000        250000.0    
          2   0.2500010       0.5000000E-03   0.2500000        500.0000        500.0000        250000.0    
          3   0.7500011        250.0005        125000.3        500.0000        500.0000        250000.0    
          4    1.250001        500.0006        250000.3        500.0000        500.0000        250000.0    
          5    1.750001        750.0007        375000.3        500.0000        500.0000        250000.0    
          6    2.250001        1000.001        500000.4        500.0000        500.0000        250000.0    
          7    2.750002        1250.001        625000.4        500.0000        500.0000        250000.0    
          8    3.250002        1500.001        750000.4        500.0000        500.0000        250000.0    
          9    3.750002        1750.001        875000.4        500.0000        500.0000        250000.0    
         10    4.250002        2000.001        1000000.        500.0000        500.0000        250000.0    
         11    4.750002        2250.001        1125000.        500.0000        500.0000        250000.0    
         12    5.250000        2500.000        1250000.        500.0000        500.0000        250000.0    
         13    5.250001        2500.001        1250000.        500.0000        500.0000        250000.0    
         14    15.25000        7500.000        3750000.        500.0000        500.0000        250000.0    

 REACH   =    95
 LAYSTR  =     1
 LAYEND  =     1
          N   ELEVATION [L]  XSECTAREA [L2]     VOLUME [L3] WET. PERIM. [L]   TOP WIDTH [L] SURF. AREA [L2]
 ---------- --------------- --------------- --------------- --------------- --------------- ---------------
          1   0.2500000        0.000000        0.000000        500.0000        500.0000        250000.0    
          2   0.2500010       0.5000000E-03   0.2500000        500.0000        500.0000        250000.0    
          3   0.7500011        250.0005        125000.3        500.0000        500.0000        250000.0    
          4    1.250001        500.0006        250000.3        500.0000        500.0000        250000.0    
          5    1.750001        750.0007        375000.3        500.0000        500.0000        250000.0    
          6    2.250001        1000.001        500000.4        500.0000        500.0000        250000.0    
          7    2.750002        1250.001        625000.4        500.0000        500.0000        250000.0    
          8    3.250002        1500.001        750000.4        500.0000        500.0000        250000.0    
          9    3.750002        1750.001        875000.4        500.0000        500.0000        250000.0    
         10    4.250002        2000.001        1000000.        500.0000        500.0000        250000.0    
         11    4.750002        2250.001        1125000.        500.0000        500.0000        250000.0    
         12    5.250000        2500.000        1250000.        500.0000        500.0000        250000.0    
         13    5.250001        2500.001        1250000.        500.0000        500.0000        250000.0    
         14    15.25000        7500.000        3750000.        500.0000        500.0000        250000.0    

 REACH   =    96
 LAYSTR  =     1
 LAYEND  =     1
          N   ELEVATION [L]  XSECTAREA [L2]     VOLUME [L3] WET. PERIM. [L]   TOP WIDTH [L] SURF. AREA [L2]
 ---------- --------------- --------------- --------------- --------------- --------------- ---------------
          1   0.2500000        0.000000        0.000000        500.0000        500.0000        250000.0    
          2   0.2500010       0.5000000E-03   0.2500000        500.0000        500.0000        250000.0    
          3   0.7500011        250.0005        125000.3        500.0000        500.0000        250000.0    
          4    1.250001        500.0006        250000.3        500.0000        500.0000        250000.0    
          5    1.750001        750.0007        375000.3        500.0000        500.0000        250000.0    
          6    2.250001        1000.001        500000.4        500.0000        500.0000        250000.0    
          7    2.750002        1250.001        625000.4        500.0000        500.0000        250000.0    
          8    3.250002        1500.001        750000.4        500.0000        500.0000        250000.0    
          9    3.750002        1750.001        875000.4        500.0000        500.0000        250000.0    
         10    4.250002        2000.001        1000000.        500.0000        500.0000        250000.0    
         11    4.750002        2250.001        1125000.        500.0000        500.0000        250000.0    
         12    5.250000        2500.000        1250000.        500.0000        500.0000        250000.0    
         13    5.250001        2500.001        1250000.        500.0000        500.0000        250000.0    
         14    15.25000        7500.000        3750000.        500.0000        500.0000        250000.0    

 REACH   =    97
 LAYSTR  =     1
 LAYEND  =     1
          N   ELEVATION [L]  XSECTAREA [L2]     VOLUME [L3] WET. PERIM. [L]   TOP WIDTH [L] SURF. AREA [L2]
 ---------- --------------- --------------- --------------- --------------- --------------- ---------------
          1   0.2500000        0.000000        0.000000        500.0000        500.0000        250000.0    
          2   0.2500010       0.5000000E-03   0.2500000        500.0000        500.0000        250000.0    
          3   0.7500011        250.0005        125000.3        500.0000        500.0000        250000.0    
          4    1.250001        500.0006        250000.3        500.0000        500.0000        250000.0    
          5    1.750001        750.0007        375000.3        500.0000        500.0000        250000.0    
          6    2.250001        1000.001        500000.4        500.0000        500.0000        250000.0    
          7    2.750002        1250.001        625000.4        500.0000        500.0000        250000.0    
          8    3.250002        1500.001        750000.4        500.0000        500.0000        250000.0    
          9    3.750002        1750.001        875000.4        500.0000        500.0000        250000.0    
         10    4.250002        2000.001        1000000.        500.0000        500.0000        250000.0    
         11    4.750002        2250.001        1125000.        500.0000        500.0000        250000.0    
         12    5.250000        2500.000        1250000.        500.0000        500.0000        250000.0    
         13    5.250001        2500.001        1250000.        500.0000        500.0000        250000.0    
         14    15.25000        7500.000        3750000.        500.0000        500.0000        250000.0    

 REACH   =    98
 LAYSTR  =     1
 LAYEND  =     1
          N   ELEVATION [L]  XSECTAREA [L2]     VOLUME [L3] WET. PERIM. [L]   TOP WIDTH [L] SURF. AREA [L2]
 ---------- --------------- --------------- --------------- --------------- --------------- ---------------
          1   0.2500000        0.000000        0.000000        500.0000        500.0000        250000.0    
          2   0.2500010       0.5000000E-03   0.2500000        500.0000        500.0000        250000.0    
          3   0.7500011        250.0005        125000.3        500.0000        500.0000        250000.0    
          4    1.250001        500.0006        250000.3        500.0000        500.0000        250000.0    
          5    1.750001        750.0007        375000.3        500.0000        500.0000        250000.0    
          6    2.250001        1000.001        500000.4        500.0000        500.0000        250000.0    
          7    2.750002        1250.001        625000.4        500.0000        500.0000        250000.0    
          8    3.250002        1500.001        750000.4        500.0000        500.0000        250000.0    
          9    3.750002        1750.001        875000.4        500.0000        500.0000        250000.0    
         10    4.250002        2000.001        1000000.        500.0000        500.0000        250000.0    
         11    4.750002        2250.001        1125000.        500.0000        500.0000        250000.0    
         12    5.250000        2500.000        1250000.        500.0000        500.0000        250000.0    
         13    5.250001        2500.001        1250000.        500.0000        500.0000        250000.0    
         14    15.25000        7500.000        3750000.        500.0000        500.0000        250000.0    

 REACH   =    99
 LAYSTR  =     1
 LAYEND  =     1
          N   ELEVATION [L]  XSECTAREA [L2]     VOLUME [L3] WET. PERIM. [L]   TOP WIDTH [L] SURF. AREA [L2]
 ---------- --------------- --------------- --------------- --------------- --------------- ---------------
          1   0.2500000        0.000000        0.000000        500.0000        500.0000        250000.0    
          2   0.2500010       0.5000000E-03   0.2500000        500.0000        500.0000        250000.0    
          3   0.7500011        250.0005        125000.3        500.0000        500.0000        250000.0    
          4    1.250001        500.0006        250000.3        500.0000        500.0000        250000.0    
          5    1.750001        750.0007        375000.3        500.0000        500.0000        250000.0    
          6    2.250001        1000.001        500000.4        500.0000        500.0000        250000.0    
          7    2.750002        1250.001        625000.4        500.0000        500.0000        250000.0    
          8    3.250002        1500.001        750000.4        500.0000        500.0000        250000.0    
          9    3.750002        1750.001        875000.4        500.0000        500.0000        250000.0    
         10    4.250002        2000.001        1000000.        500.0000        500.0000        250000.0    
         11    4.750002        2250.001        1125000.        500.0000        500.0000        250000.0    
         12    5.250000        2500.000        1250000.        500.0000        500.0000        250000.0    
         13    5.250001        2500.001        1250000.        500.0000        500.0000        250000.0    
         14    15.25000        7500.000        3750000.        500.0000        500.0000        250000.0    

 REACH   =   100
 LAYSTR  =     1
 LAYEND  =     1
          N   ELEVATION [L]  XSECTAREA [L2]     VOLUME [L3] WET. PERIM. [L]   TOP WIDTH [L] SURF. AREA [L2]
 ---------- --------------- --------------- --------------- --------------- --------------- ---------------
          1   0.1500000        0.000000        0.000000        500.0000        500.0000        250000.0    
          2   0.1500010       0.5000000E-03   0.2500000        500.0000        500.0000        250000.0    
          3   0.6500011        250.0006        125000.3        500.0000        500.0000        250000.0    
          4    1.150001        500.0006        250000.3        500.0000        500.0000        250000.0    
          5    1.650001        750.0007        375000.3        500.0000        500.0000        250000.0    
          6    2.150001        1000.001        500000.4        500.0000        500.0000        250000.0    
          7    2.650002        1250.001        625000.4        500.0000        500.0000        250000.0    
          8    3.150002        1500.001        750000.4        500.0000        500.0000        250000.0    
          9    3.650002        1750.001        875000.4        500.0000        500.0000        250000.0    
         10    4.150002        2000.001        1000000.        500.0000        500.0000        250000.0    
         11    4.650002        2250.001        1125000.        500.0000        500.0000        250000.0    
         12    5.150000        2500.000        1250000.        500.0000        500.0000        250000.0    
         13    5.150001        2500.001        1250000.        500.0000        500.0000        250000.0    
         14    15.15000        7500.000        3750000.        500.0000        500.0000        250000.0    

 REACH   =   101
 LAYSTR  =     1
 LAYEND  =     1
          N   ELEVATION [L]  XSECTAREA [L2]     VOLUME [L3] WET. PERIM. [L]   TOP WIDTH [L] SURF. AREA [L2]
 ---------- --------------- --------------- --------------- --------------- --------------- ---------------
          1   0.1500000        0.000000        0.000000        500.0000        500.0000        250000.0    
          2   0.1500010       0.5000000E-03   0.2500000        500.0000        500.0000        250000.0    
          3   0.6500011        250.0006        125000.3        500.0000        500.0000        250000.0    
          4    1.150001        500.0006        250000.3        500.0000        500.0000        250000.0    
          5    1.650001        750.0007        375000.3        500.0000        500.0000        250000.0    
          6    2.150001        1000.001        500000.4        500.0000        500.0000        250000.0    
          7    2.650002        1250.001        625000.4        500.0000        500.0000        250000.0    
          8    3.150002        1500.001        750000.4        500.0000        500.0000        250000.0    
          9    3.650002        1750.001        875000.4        500.0000        500.0000        250000.0    
         10    4.150002        2000.001        1000000.        500.0000        500.0000        250000.0    
         11    4.650002        2250.001        1125000.        500.0000        500.0000        250000.0    
         12    5.150000        2500.000        1250000.        500.0000        500.0000        250000.0    
         13    5.150001        2500.001        1250000.        500.0000        500.0000        250000.0    
         14    15.15000        7500.000        3750000.        500.0000        500.0000        250000.0    

 REACH   =   102
 LAYSTR  =     1
 LAYEND  =     1
          N   ELEVATION [L]  XSECTAREA [L2]     VOLUME [L3] WET. PERIM. [L]   TOP WIDTH [L] SURF. AREA [L2]
 ---------- --------------- --------------- --------------- --------------- --------------- ---------------
          1   0.1500000        0.000000        0.000000        500.0000        500.0000        250000.0    
          2   0.1500010       0.5000000E-03   0.2500000        500.0000        500.0000        250000.0    
          3   0.6500011        250.0006        125000.3        500.0000        500.0000        250000.0    
          4    1.150001        500.0006        250000.3        500.0000        500.0000        250000.0    
          5    1.650001        750.0007        375000.3        500.0000        500.0000        250000.0    
          6    2.150001        1000.001        500000.4        500.0000        500.0000        250000.0    
          7    2.650002        1250.001        625000.4        500.0000        500.0000        250000.0    
          8    3.150002        1500.001        750000.4        500.0000        500.0000        250000.0    
          9    3.650002        1750.001        875000.4        500.0000        500.0000        250000.0    
         10    4.150002        2000.001        1000000.        500.0000        500.0000        250000.0    
         11    4.650002        2250.001        1125000.        500.0000        500.0000        250000.0    
         12    5.150000        2500.000        1250000.        500.0000        500.0000        250000.0    
         13    5.150001        2500.001        1250000.        500.0000        500.0000        250000.0    
         14    15.15000        7500.000        3750000.        500.0000        500.0000        250000.0    

 REACH   =   103
 LAYSTR  =     1
 LAYEND  =     1
          N   ELEVATION [L]  XSECTAREA [L2]     VOLUME [L3] WET. PERIM. [L]   TOP WIDTH [L] SURF. AREA [L2]
 ---------- --------------- --------------- --------------- --------------- --------------- ---------------
          1   0.1500000        0.000000        0.000000        500.0000        500.0000        250000.0    
          2   0.1500010       0.5000000E-03   0.2500000        500.0000        500.0000        250000.0    
          3   0.6500011        250.0006        125000.3        500.0000        500.0000        250000.0    
          4    1.150001        500.0006        250000.3        500.0000        500.0000        250000.0    
          5    1.650001        750.0007        375000.3        500.0000        500.0000        250000.0    
          6    2.150001        1000.001        500000.4        500.0000        500.0000        250000.0    
          7    2.650002        1250.001        625000.4        500.0000        500.0000        250000.0    
          8    3.150002        1500.001        750000.4        500.0000        500.0000        250000.0    
          9    3.650002        1750.001        875000.4        500.0000        500.0000        250000.0    
         10    4.150002        2000.001        1000000.        500.0000        500.0000        250000.0    
         11    4.650002        2250.001        1125000.        500.0000        500.0000        250000.0    
         12    5.150000        2500.000        1250000.        500.0000        500.0000        250000.0    
         13    5.150001        2500.001        1250000.        500.0000        500.0000        250000.0    
         14    15.15000        7500.000        3750000.        500.0000        500.0000        250000.0    

 REACH   =   104
 LAYSTR  =     1
 LAYEND  =     1
          N   ELEVATION [L]  XSECTAREA [L2]     VOLUME [L3] WET. PERIM. [L]   TOP WIDTH [L] SURF. AREA [L2]
 ---------- --------------- --------------- --------------- --------------- --------------- ---------------
          1   0.1500000        0.000000        0.000000        500.0000        500.0000        250000.0    
          2   0.1500010       0.5000000E-03   0.2500000        500.0000        500.0000        250000.0    
          3   0.6500011        250.0006        125000.3        500.0000        500.0000        250000.0    
          4    1.150001        500.0006        250000.3        500.0000        500.0000        250000.0    
          5    1.650001        750.0007        375000.3        500.0000        500.0000        250000.0    
          6    2.150001        1000.001        500000.4        500.0000        500.0000        250000.0    
          7    2.650002        1250.001        625000.4        500.0000        500.0000        250000.0    
          8    3.150002        1500.001        750000.4        500.0000        500.0000        250000.0    
          9    3.650002        1750.001        875000.4        500.0000        500.0000        250000.0    
         10    4.150002        2000.001        1000000.        500.0000        500.0000        250000.0    
         11    4.650002        2250.001        1125000.        500.0000        500.0000        250000.0    
         12    5.150000        2500.000        1250000.        500.0000        500.0000        250000.0    
         13    5.150001        2500.001        1250000.        500.0000        500.0000        250000.0    
         14    15.15000        7500.000        3750000.        500.0000        500.0000        250000.0    

 REACH   =   105
 LAYSTR  =     1
 LAYEND  =     1
          N   ELEVATION [L]  XSECTAREA [L2]     VOLUME [L3] WET. PERIM. [L]   TOP WIDTH [L] SURF. AREA [L2]
 ---------- --------------- --------------- --------------- --------------- --------------- ---------------
          1   0.1500000        0.000000        0.000000        500.0000        500.0000        250000.0    
          2   0.1500010       0.5000000E-03   0.2500000        500.0000        500.0000        250000.0    
          3   0.6500011        250.0006        125000.3        500.0000        500.0000        250000.0    
          4    1.150001        500.0006        250000.3        500.0000        500.0000        250000.0    
          5    1.650001        750.0007        375000.3        500.0000        500.0000        250000.0    
          6    2.150001        1000.001        500000.4        500.0000        500.0000        250000.0    
          7    2.650002        1250.001        625000.4        500.0000        500.0000        250000.0    
          8    3.150002        1500.001        750000.4        500.0000        500.0000        250000.0    
          9    3.650002        1750.001        875000.4        500.0000        500.0000        250000.0    
         10    4.150002        2000.001        1000000.        500.0000        500.0000        250000.0    
         11    4.650002        2250.001        1125000.        500.0000        500.0000        250000.0    
         12    5.150000        2500.000        1250000.        500.0000        500.0000        250000.0    
         13    5.150001        2500.001        1250000.        500.0000        500.0000        250000.0    
         14    15.15000        7500.000        3750000.        500.0000        500.0000        250000.0    

 REACH   =   106
 LAYSTR  =     1
 LAYEND  =     1
          N   ELEVATION [L]  XSECTAREA [L2]     VOLUME [L3] WET. PERIM. [L]   TOP WIDTH [L] SURF. AREA [L2]
 ---------- --------------- --------------- --------------- --------------- --------------- ---------------
          1   0.1500000        0.000000        0.000000        500.0000        500.0000        250000.0    
          2   0.1500010       0.5000000E-03   0.2500000        500.0000        500.0000        250000.0    
          3   0.6500011        250.0006        125000.3        500.0000        500.0000        250000.0    
          4    1.150001        500.0006        250000.3        500.0000        500.0000        250000.0    
          5    1.650001        750.0007        375000.3        500.0000        500.0000        250000.0    
          6    2.150001        1000.001        500000.4        500.0000        500.0000        250000.0    
          7    2.650002        1250.001        625000.4        500.0000        500.0000        250000.0    
          8    3.150002        1500.001        750000.4        500.0000        500.0000        250000.0    
          9    3.650002        1750.001        875000.4        500.0000        500.0000        250000.0    
         10    4.150002        2000.001        1000000.        500.0000        500.0000        250000.0    
         11    4.650002        2250.001        1125000.        500.0000        500.0000        250000.0    
         12    5.150000        2500.000        1250000.        500.0000        500.0000        250000.0    
         13    5.150001        2500.001        1250000.        500.0000        500.0000        250000.0    
         14    15.15000        7500.000        3750000.        500.0000        500.0000        250000.0    

 REACH   =   107
 LAYSTR  =     1
 LAYEND  =     1
          N   ELEVATION [L]  XSECTAREA [L2]     VOLUME [L3] WET. PERIM. [L]   TOP WIDTH [L] SURF. AREA [L2]
 ---------- --------------- --------------- --------------- --------------- --------------- ---------------
          1   0.1500000        0.000000        0.000000        500.0000        500.0000        250000.0    
          2   0.1500010       0.5000000E-03   0.2500000        500.0000        500.0000        250000.0    
          3   0.6500011        250.0006        125000.3        500.0000        500.0000        250000.0    
          4    1.150001        500.0006        250000.3        500.0000        500.0000        250000.0    
          5    1.650001        750.0007        375000.3        500.0000        500.0000        250000.0    
          6    2.150001        1000.001        500000.4        500.0000        500.0000        250000.0    
          7    2.650002        1250.001        625000.4        500.0000        500.0000        250000.0    
          8    3.150002        1500.001        750000.4        500.0000        500.0000        250000.0    
          9    3.650002        1750.001        875000.4        500.0000        500.0000        250000.0    
         10    4.150002        2000.001        1000000.        500.0000        500.0000        250000.0    
         11    4.650002        2250.001        1125000.        500.0000        500.0000        250000.0    
         12    5.150000        2500.000        1250000.        500.0000        500.0000        250000.0    
         13    5.150001        2500.001        1250000.        500.0000        500.0000        250000.0    
         14    15.15000        7500.000        3750000.        500.0000        500.0000        250000.0    

 REACH   =   108
 LAYSTR  =     1
 LAYEND  =     1
          N   ELEVATION [L]  XSECTAREA [L2]     VOLUME [L3] WET. PERIM. [L]   TOP WIDTH [L] SURF. AREA [L2]
 ---------- --------------- --------------- --------------- --------------- --------------- ---------------
          1   0.1500000        0.000000        0.000000        500.0000        500.0000        250000.0    
          2   0.1500010       0.5000000E-03   0.2500000        500.0000        500.0000        250000.0    
          3   0.6500011        250.0006        125000.3        500.0000        500.0000        250000.0    
          4    1.150001        500.0006        250000.3        500.0000        500.0000        250000.0    
          5    1.650001        750.0007        375000.3        500.0000        500.0000        250000.0    
          6    2.150001        1000.001        500000.4        500.0000        500.0000        250000.0    
          7    2.650002        1250.001        625000.4        500.0000        500.0000        250000.0    
          8    3.150002        1500.001        750000.4        500.0000        500.0000        250000.0    
          9    3.650002        1750.001        875000.4        500.0000        500.0000        250000.0    
         10    4.150002        2000.001        1000000.        500.0000        500.0000        250000.0    
         11    4.650002        2250.001        1125000.        500.0000        500.0000        250000.0    
         12    5.150000        2500.000        1250000.        500.0000        500.0000        250000.0    
         13    5.150001        2500.001        1250000.        500.0000        500.0000        250000.0    
         14    15.15000        7500.000        3750000.        500.0000        500.0000        250000.0    

 REACH   =   109
 LAYSTR  =     1
 LAYEND  =     1
          N   ELEVATION [L]  XSECTAREA [L2]     VOLUME [L3] WET. PERIM. [L]   TOP WIDTH [L] SURF. AREA [L2]
 ---------- --------------- --------------- --------------- --------------- --------------- ---------------
          1   0.1500000        0.000000        0.000000        500.0000        500.0000        250000.0    
          2   0.1500010       0.5000000E-03   0.2500000        500.0000        500.0000        250000.0    
          3   0.6500011        250.0006        125000.3        500.0000        500.0000        250000.0    
          4    1.150001        500.0006        250000.3        500.0000        500.0000        250000.0    
          5    1.650001        750.0007        375000.3        500.0000        500.0000        250000.0    
          6    2.150001        1000.001        500000.4        500.0000        500.0000        250000.0    
          7    2.650002        1250.001        625000.4        500.0000        500.0000        250000.0    
          8    3.150002        1500.001        750000.4        500.0000        500.0000        250000.0    
          9    3.650002        1750.001        875000.4        500.0000        500.0000        250000.0    
         10    4.150002        2000.001        1000000.        500.0000        500.0000        250000.0    
         11    4.650002        2250.001        1125000.        500.0000        500.0000        250000.0    
         12    5.150000        2500.000        1250000.        500.0000        500.0000        250000.0    
         13    5.150001        2500.001        1250000.        500.0000        500.0000        250000.0    
         14    15.15000        7500.000        3750000.        500.0000        500.0000        250000.0    

 REACH   =   110
 LAYSTR  =     1
 LAYEND  =     1
          N   ELEVATION [L]  XSECTAREA [L2]     VOLUME [L3] WET. PERIM. [L]   TOP WIDTH [L] SURF. AREA [L2]
 ---------- --------------- --------------- --------------- --------------- --------------- ---------------
          1   0.1500000        0.000000        0.000000        500.0000        500.0000        250000.0    
          2   0.1500010       0.5000000E-03   0.2500000        500.0000        500.0000        250000.0    
          3   0.6500011        250.0006        125000.3        500.0000        500.0000        250000.0    
          4    1.150001        500.0006        250000.3        500.0000        500.0000        250000.0    
          5    1.650001        750.0007        375000.3        500.0000        500.0000        250000.0    
          6    2.150001        1000.001        500000.4        500.0000        500.0000        250000.0    
          7    2.650002        1250.001        625000.4        500.0000        500.0000        250000.0    
          8    3.150002        1500.001        750000.4        500.0000        500.0000        250000.0    
          9    3.650002        1750.001        875000.4        500.0000        500.0000        250000.0    
         10    4.150002        2000.001        1000000.        500.0000        500.0000        250000.0    
         11    4.650002        2250.001        1125000.        500.0000        500.0000        250000.0    
         12    5.150000        2500.000        1250000.        500.0000        500.0000        250000.0    
         13    5.150001        2500.001        1250000.        500.0000        500.0000        250000.0    
         14    15.15000        7500.000        3750000.        500.0000        500.0000        250000.0    

 REACH   =   111
 LAYSTR  =     1
 LAYEND  =     1
          N   ELEVATION [L]  XSECTAREA [L2]     VOLUME [L3] WET. PERIM. [L]   TOP WIDTH [L] SURF. AREA [L2]
 ---------- --------------- --------------- --------------- --------------- --------------- ---------------
          1   0.5000000E-01    0.000000        0.000000        500.0000        500.0000        250000.0    
          2   0.5000100E-01   0.5000000E-03   0.2500000        500.0000        500.0000        250000.0    
          3   0.5500011        250.0006        125000.3        500.0000        500.0000        250000.0    
          4    1.050001        500.0006        250000.3        500.0000        500.0000        250000.0    
          5    1.550001        750.0007        375000.3        500.0000        500.0000        250000.0    
          6    2.050001        1000.001        500000.4        500.0000        500.0000        250000.0    
          7    2.550002        1250.001        625000.4        500.0000        500.0000        250000.0    
          8    3.050002        1500.001        750000.4        500.0000        500.0000        250000.0    
          9    3.550002        1750.001        875000.4        500.0000        500.0000        250000.0    
         10    4.050002        2000.001        1000000.        500.0000        500.0000        250000.0    
         11    4.550002        2250.001        1125000.        500.0000        500.0000        250000.0    
         12    5.050000        2500.000        1250000.        500.0000        500.0000        250000.0    
         13    5.050001        2500.001        1250000.        500.0000        500.0000        250000.0    
         14    15.05000        7500.000        3750000.        500.0000        500.0000        250000.0    

 REACH   =   112
 LAYSTR  =     1
 LAYEND  =     1
          N   ELEVATION [L]  XSECTAREA [L2]     VOLUME [L3] WET. PERIM. [L]   TOP WIDTH [L] SURF. AREA [L2]
 ---------- --------------- --------------- --------------- --------------- --------------- ---------------
          1   0.5000000E-01    0.000000        0.000000        500.0000        500.0000        250000.0    
          2   0.5000100E-01   0.5000000E-03   0.2500000        500.0000        500.0000        250000.0    
          3   0.5500011        250.0006        125000.3        500.0000        500.0000        250000.0    
          4    1.050001        500.0006        250000.3        500.0000        500.0000        250000.0    
          5    1.550001        750.0007        375000.3        500.0000        500.0000        250000.0    
          6    2.050001        1000.001        500000.4        500.0000        500.0000        250000.0    
          7    2.550002        1250.001        625000.4        500.0000        500.0000        250000.0    
          8    3.050002        1500.001        750000.4        500.0000        500.0000        250000.0    
          9    3.550002        1750.001        875000.4        500.0000        500.0000        250000.0    
         10    4.050002        2000.001        1000000.        500.0000        500.0000        250000.0    
         11    4.550002        2250.001        1125000.        500.0000        500.0000        250000.0    
         12    5.050000        2500.000        1250000.        500.0000        500.0000        250000.0    
         13    5.050001        2500.001        1250000.        500.0000        500.0000        250000.0    
         14    15.05000        7500.000        3750000.        500.0000        500.0000        250000.0    

 REACH   =   113
 LAYSTR  =     1
 LAYEND  =     1
          N   ELEVATION [L]  XSECTAREA [L2]     VOLUME [L3] WET. PERIM. [L]   TOP WIDTH [L] SURF. AREA [L2]
 ---------- --------------- --------------- --------------- --------------- --------------- ---------------
          1   0.5000000E-01    0.000000        0.000000        500.0000        500.0000        250000.0    
          2   0.5000100E-01   0.5000000E-03   0.2500000        500.0000        500.0000        250000.0    
          3   0.5500011        250.0006        125000.3        500.0000        500.0000        250000.0    
          4    1.050001        500.0006        250000.3        500.0000        500.0000        250000.0    
          5    1.550001        750.0007        375000.3        500.0000        500.0000        250000.0    
          6    2.050001        1000.001        500000.4        500.0000        500.0000        250000.0    
          7    2.550002        1250.001        625000.4        500.0000        500.0000        250000.0    
          8    3.050002        1500.001        750000.4        500.0000        500.0000        250000.0    
          9    3.550002        1750.001        875000.4        500.0000        500.0000        250000.0    
         10    4.050002        2000.001        1000000.        500.0000        500.0000        250000.0    
         11    4.550002        2250.001        1125000.        500.0000        500.0000        250000.0    
         12    5.050000        2500.000        1250000.        500.0000        500.0000        250000.0    
         13    5.050001        2500.001        1250000.        500.0000        500.0000        250000.0    
         14    15.05000        7500.000        3750000.        500.0000        500.0000        250000.0    

 REACH   =   114
 LAYSTR  =     1
 LAYEND  =     1
          N   ELEVATION [L]  XSECTAREA [L2]     VOLUME [L3] WET. PERIM. [L]   TOP WIDTH [L] SURF. AREA [L2]
 ---------- --------------- --------------- --------------- --------------- --------------- ---------------
          1   0.5000000E-01    0.000000        0.000000        500.0000        500.0000        250000.0    
          2   0.5000100E-01   0.5000000E-03   0.2500000        500.0000        500.0000        250000.0    
          3   0.5500011        250.0006        125000.3        500.0000        500.0000        250000.0    
          4    1.050001        500.0006        250000.3        500.0000        500.0000        250000.0    
          5    1.550001        750.0007        375000.3        500.0000        500.0000        250000.0    
          6    2.050001        1000.001        500000.4        500.0000        500.0000        250000.0    
          7    2.550002        1250.001        625000.4        500.0000        500.0000        250000.0    
          8    3.050002        1500.001        750000.4        500.0000        500.0000        250000.0    
          9    3.550002        1750.001        875000.4        500.0000        500.0000        250000.0    
         10    4.050002        2000.001        1000000.        500.0000        500.0000        250000.0    
         11    4.550002        2250.001        1125000.        500.0000        500.0000        250000.0    
         12    5.050000        2500.000        1250000.        500.0000        500.0000        250000.0    
         13    5.050001        2500.001        1250000.        500.0000        500.0000        250000.0    
         14    15.05000        7500.000        3750000.        500.0000        500.0000        250000.0    

 REACH   =   115
 LAYSTR  =     1
 LAYEND  =     1
          N   ELEVATION [L]  XSECTAREA [L2]     VOLUME [L3] WET. PERIM. [L]   TOP WIDTH [L] SURF. AREA [L2]
 ---------- --------------- --------------- --------------- --------------- --------------- ---------------
          1   0.5000000E-01    0.000000        0.000000        500.0000        500.0000        250000.0    
          2   0.5000100E-01   0.5000000E-03   0.2500000        500.0000        500.0000        250000.0    
          3   0.5500011        250.0006        125000.3        500.0000        500.0000        250000.0    
          4    1.050001        500.0006        250000.3        500.0000        500.0000        250000.0    
          5    1.550001        750.0007        375000.3        500.0000        500.0000        250000.0    
          6    2.050001        1000.001        500000.4        500.0000        500.0000        250000.0    
          7    2.550002        1250.001        625000.4        500.0000        500.0000        250000.0    
          8    3.050002        1500.001        750000.4        500.0000        500.0000        250000.0    
          9    3.550002        1750.001        875000.4        500.0000        500.0000        250000.0    
         10    4.050002        2000.001        1000000.        500.0000        500.0000        250000.0    
         11    4.550002        2250.001        1125000.        500.0000        500.0000        250000.0    
         12    5.050000        2500.000        1250000.        500.0000        500.0000        250000.0    
         13    5.050001        2500.001        1250000.        500.0000        500.0000        250000.0    
         14    15.05000        7500.000        3750000.        500.0000        500.0000        250000.0    

 REACH   =   116
 LAYSTR  =     1
 LAYEND  =     1
          N   ELEVATION [L]  XSECTAREA [L2]     VOLUME [L3] WET. PERIM. [L]   TOP WIDTH [L] SURF. AREA [L2]
 ---------- --------------- --------------- --------------- --------------- --------------- ---------------
          1   0.5000000E-01    0.000000        0.000000        500.0000        500.0000        250000.0    
          2   0.5000100E-01   0.5000000E-03   0.2500000        500.0000        500.0000        250000.0    
          3   0.5500011        250.0006        125000.3        500.0000        500.0000        250000.0    
          4    1.050001        500.0006        250000.3        500.0000        500.0000        250000.0    
          5    1.550001        750.0007        375000.3        500.0000        500.0000        250000.0    
          6    2.050001        1000.001        500000.4        500.0000        500.0000        250000.0    
          7    2.550002        1250.001        625000.4        500.0000        500.0000        250000.0    
          8    3.050002        1500.001        750000.4        500.0000        500.0000        250000.0    
          9    3.550002        1750.001        875000.4        500.0000        500.0000        250000.0    
         10    4.050002        2000.001        1000000.        500.0000        500.0000        250000.0    
         11    4.550002        2250.001        1125000.        500.0000        500.0000        250000.0    
         12    5.050000        2500.000        1250000.        500.0000        500.0000        250000.0    
         13    5.050001        2500.001        1250000.        500.0000        500.0000        250000.0    
         14    15.05000        7500.000        3750000.        500.0000        500.0000        250000.0    

 REACH   =   117
 LAYSTR  =     1
 LAYEND  =     1
          N   ELEVATION [L]  XSECTAREA [L2]     VOLUME [L3] WET. PERIM. [L]   TOP WIDTH [L] SURF. AREA [L2]
 ---------- --------------- --------------- --------------- --------------- --------------- ---------------
          1   0.5000000E-01    0.000000        0.000000        500.0000        500.0000        250000.0    
          2   0.5000100E-01   0.5000000E-03   0.2500000        500.0000        500.0000        250000.0    
          3   0.5500011        250.0006        125000.3        500.0000        500.0000        250000.0    
          4    1.050001        500.0006        250000.3        500.0000        500.0000        250000.0    
          5    1.550001        750.0007        375000.3        500.0000        500.0000        250000.0    
          6    2.050001        1000.001        500000.4        500.0000        500.0000        250000.0    
          7    2.550002        1250.001        625000.4        500.0000        500.0000        250000.0    
          8    3.050002        1500.001        750000.4        500.0000        500.0000        250000.0    
          9    3.550002        1750.001        875000.4        500.0000        500.0000        250000.0    
         10    4.050002        2000.001        1000000.        500.0000        500.0000        250000.0    
         11    4.550002        2250.001        1125000.        500.0000        500.0000        250000.0    
         12    5.050000        2500.000        1250000.        500.0000        500.0000        250000.0    
         13    5.050001        2500.001        1250000.        500.0000        500.0000        250000.0    
         14    15.05000        7500.000        3750000.        500.0000        500.0000        250000.0    

 REACH   =   118
 LAYSTR  =     1
 LAYEND  =     1
          N   ELEVATION [L]  XSECTAREA [L2]     VOLUME [L3] WET. PERIM. [L]   TOP WIDTH [L] SURF. AREA [L2]
 ---------- --------------- --------------- --------------- --------------- --------------- ---------------
          1   0.5000000E-01    0.000000        0.000000        500.0000        500.0000        250000.0    
          2   0.5000100E-01   0.5000000E-03   0.2500000        500.0000        500.0000        250000.0    
          3   0.5500011        250.0006        125000.3        500.0000        500.0000        250000.0    
          4    1.050001        500.0006        250000.3        500.0000        500.0000        250000.0    
          5    1.550001        750.0007        375000.3        500.0000        500.0000        250000.0    
          6    2.050001        1000.001        500000.4        500.0000        500.0000        250000.0    
          7    2.550002        1250.001        625000.4        500.0000        500.0000        250000.0    
          8    3.050002        1500.001        750000.4        500.0000        500.0000        250000.0    
          9    3.550002        1750.001        875000.4        500.0000        500.0000        250000.0    
         10    4.050002        2000.001        1000000.        500.0000        500.0000        250000.0    
         11    4.550002        2250.001        1125000.        500.0000        500.0000        250000.0    
         12    5.050000        2500.000        1250000.        500.0000        500.0000        250000.0    
         13    5.050001        2500.001        1250000.        500.0000        500.0000        250000.0    
         14    15.05000        7500.000        3750000.        500.0000        500.0000        250000.0    

 REACH   =   119
 LAYSTR  =     1
 LAYEND  =     1
          N   ELEVATION [L]  XSECTAREA [L2]     VOLUME [L3] WET. PERIM. [L]   TOP WIDTH [L] SURF. AREA [L2]
 ---------- --------------- --------------- --------------- --------------- --------------- ---------------
          1   0.5000000E-01    0.000000        0.000000        500.0000        500.0000        250000.0    
          2   0.5000100E-01   0.5000000E-03   0.2500000        500.0000        500.0000        250000.0    
          3   0.5500011        250.0006        125000.3        500.0000        500.0000        250000.0    
          4    1.050001        500.0006        250000.3        500.0000        500.0000        250000.0    
          5    1.550001        750.0007        375000.3        500.0000        500.0000        250000.0    
          6    2.050001        1000.001        500000.4        500.0000        500.0000        250000.0    
          7    2.550002        1250.001        625000.4        500.0000        500.0000        250000.0    
          8    3.050002        1500.001        750000.4        500.0000        500.0000        250000.0    
          9    3.550002        1750.001        875000.4        500.0000        500.0000        250000.0    
         10    4.050002        2000.001        1000000.        500.0000        500.0000        250000.0    
         11    4.550002        2250.001        1125000.        500.0000        500.0000        250000.0    
         12    5.050000        2500.000        1250000.        500.0000        500.0000        250000.0    
         13    5.050001        2500.001        1250000.        500.0000        500.0000        250000.0    
         14    15.05000        7500.000        3750000.        500.0000        500.0000        250000.0    

 REACH   =   120
 LAYSTR  =     1
 LAYEND  =     1
          N   ELEVATION [L]  XSECTAREA [L2]     VOLUME [L3] WET. PERIM. [L]   TOP WIDTH [L] SURF. AREA [L2]
 ---------- --------------- --------------- --------------- --------------- --------------- ---------------
          1   0.5000000E-01    0.000000        0.000000        500.0000        500.0000        250000.0    
          2   0.5000100E-01   0.5000000E-03   0.2500000        500.0000        500.0000        250000.0    
          3   0.5500011        250.0006        125000.3        500.0000        500.0000        250000.0    
          4    1.050001        500.0006        250000.3        500.0000        500.0000        250000.0    
          5    1.550001        750.0007        375000.3        500.0000        500.0000        250000.0    
          6    2.050001        1000.001        500000.4        500.0000        500.0000        250000.0    
          7    2.550002        1250.001        625000.4        500.0000        500.0000        250000.0    
          8    3.050002        1500.001        750000.4        500.0000        500.0000        250000.0    
          9    3.550002        1750.001        875000.4        500.0000        500.0000        250000.0    
         10    4.050002        2000.001        1000000.        500.0000        500.0000        250000.0    
         11    4.550002        2250.001        1125000.        500.0000        500.0000        250000.0    
         12    5.050000        2500.000        1250000.        500.0000        500.0000        250000.0    
         13    5.050001        2500.001        1250000.        500.0000        500.0000        250000.0    
         14    15.05000        7500.000        3750000.        500.0000        500.0000        250000.0    

 REACH   =   121
 LAYSTR  =     1
 LAYEND  =     1
          N   ELEVATION [L]  XSECTAREA [L2]     VOLUME [L3] WET. PERIM. [L]   TOP WIDTH [L] SURF. AREA [L2]
 ---------- --------------- --------------- --------------- --------------- --------------- ---------------
          1   0.5000000E-01    0.000000        0.000000        500.0000        500.0000        250000.0    
          2   0.5000100E-01   0.5000000E-03   0.2500000        500.0000        500.0000        250000.0    
          3   0.5500011        250.0006        125000.3        500.0000        500.0000        250000.0    
          4    1.050001        500.0006        250000.3        500.0000        500.0000        250000.0    
          5    1.550001        750.0007        375000.3        500.0000        500.0000        250000.0    
          6    2.050001        1000.001        500000.4        500.0000        500.0000        250000.0    
          7    2.550002        1250.001        625000.4        500.0000        500.0000        250000.0    
          8    3.050002        1500.001        750000.4        500.0000        500.0000        250000.0    
          9    3.550002        1750.001        875000.4        500.0000        500.0000        250000.0    
         10    4.050002        2000.001        1000000.        500.0000        500.0000        250000.0    
         11    4.550002        2250.001        1125000.        500.0000        500.0000        250000.0    
         12    5.050000        2500.000        1250000.        500.0000        500.0000        250000.0    
         13    5.050001        2500.001        1250000.        500.0000        500.0000        250000.0    
         14    15.05000        7500.000        3750000.        500.0000        500.0000        250000.0    

 ...READING SWR1 PROCESS DATASET 14B



                      2D STAGE DATA
 READING ON UNIT   61 WITH FORMAT: (11E6.2)            

           1          2          3          4          5          6          7          8          9         10         11
 .........................................................................................................................
   1    1.10       1.00      0.900      0.800      0.700      0.600      0.500      0.400      0.300      0.200      0.100    
   2    1.10       1.00      0.900      0.800      0.700      0.600      0.500      0.400      0.300      0.200      0.100    
   3    1.10       1.00      0.900      0.800      0.700      0.600      0.500      0.400      0.300      0.200      0.100    
   4    1.10       1.00      0.900      0.800      0.700      0.600      0.500      0.400      0.300      0.200      0.100    
   5    1.10       1.00      0.900      0.800      0.700      0.600      0.500      0.400      0.300      0.200      0.100    
   6    1.10       1.00      0.900      0.800      0.700      0.600      0.500      0.400      0.300      0.200      0.100    
   7    1.10       1.00      0.900      0.800      0.700      0.600      0.500      0.400      0.300      0.200      0.100    
   8    1.10       1.00      0.900      0.800      0.700      0.600      0.500      0.400      0.300      0.200      0.100    
   9    1.10       1.00      0.900      0.800      0.700      0.600      0.500      0.400      0.300      0.200      0.100    
  10    1.10       1.00      0.900      0.800      0.700      0.600      0.500      0.400      0.300      0.200      0.100    
  11    1.10       1.00      0.900      0.800      0.700      0.600      0.500      0.400      0.300      0.200      0.100    


 STAGE DATA FOR STRESS PERIOD          1
 REACH      STAGE     STATUS
 ---------------------------
     1   1.10            RAW
     2   1.10            RAW
     3   1.10            RAW
     4   1.10            RAW
     5   1.10            RAW
     6   1.10            RAW
     7   1.10            RAW
     8   1.10            RAW
     9   1.10            RAW
    10   1.10            RAW
    11   1.10            RAW
    12   1.00            RAW
    13   1.00            RAW
    14   1.00            RAW
    15   1.00            RAW
    16   1.00            RAW
    17   1.00            RAW
    18   1.00            RAW
    19   1.00            RAW
    20   1.00            RAW
    21   1.00            RAW
    22   1.00            RAW
    23  0.900            RAW
    24  0.900            RAW
    25  0.900            RAW
    26  0.900            RAW
    27  0.900            RAW
    28  0.900            RAW
    29  0.900            RAW
    30  0.900            RAW
    31  0.900            RAW
    32  0.900            RAW
    33  0.900            RAW
    34  0.800            RAW
    35  0.800            RAW
    36  0.800            RAW
    37  0.800            RAW
    38  0.800            RAW
    39  0.800            RAW
    40  0.800            RAW
    41  0.800            RAW
    42  0.800            RAW
    43  0.800            RAW
    44  0.800            RAW
    45  0.700            RAW
    46  0.700            RAW
    47  0.700            RAW
    48  0.700            RAW
    49  0.700            RAW
    50  0.700            RAW
    51  0.700            RAW
    52  0.700            RAW
    53  0.700            RAW
    54  0.700            RAW
    55  0.700            RAW
    56  0.600            RAW
    57  0.600            RAW
    58  0.600            RAW
    59  0.600            RAW
    60  0.600            RAW
    61  0.600            RAW
    62  0.600            RAW
    63  0.600            RAW
    64  0.600            RAW
    65  0.600            RAW
    66  0.600            RAW
    67  0.500            RAW
    68  0.500            RAW
    69  0.500            RAW
    70  0.500            RAW
    71  0.500            RAW
    72  0.500            RAW
    73  0.500            RAW
    74  0.500            RAW
    75  0.500            RAW
    76  0.500            RAW
    77  0.500            RAW
    78  0.400            RAW
    79  0.400            RAW
    80  0.400            RAW
    81  0.400            RAW
    82  0.400            RAW
    83  0.400            RAW
    84  0.400            RAW
    85  0.400            RAW
    86  0.400            RAW
    87  0.400            RAW
    88  0.400            RAW
    89  0.300            RAW
    90  0.300            RAW
    91  0.300            RAW
    92  0.300            RAW
    93  0.300            RAW
    94  0.300            RAW
    95  0.300            RAW
    96  0.300            RAW
    97  0.300            RAW
    98  0.300            RAW
    99  0.300            RAW
   100  0.200            RAW
   101  0.200            RAW
   102  0.200            RAW
   103  0.200            RAW
   104  0.200            RAW
   105  0.200            RAW
   106  0.200            RAW
   107  0.200            RAW
   108  0.200            RAW
   109  0.200            RAW
   110  0.200            RAW
   111  0.100            RAW
   112  0.100            RAW
   113  0.100            RAW
   114  0.100            RAW
   115  0.100            RAW
   116  0.100            RAW
   117  0.100            RAW
   118  0.100            RAW
   119  0.100            RAW
   120  0.100            RAW
   121  0.100            RAW


 REACH OFFSETS FOR STRESS PERIOD
          1          2          3          4          5          6          7          8          9         10
         11         12         13         14         15         16         17         18         19         20
         21         22         23         24         25         26         27         28         29         30
         31         32         33         34         35         36         37         38         39         40
         41         42         43         44         45         46         47         48         49         50
         51         52         53         54         55         56         57         58         59         60
         61         62         63         64         65         66         67         68         69         70
         71         72         73         74         75         76         77         78         79         80
         81         82         83         84         85         86         87         88         89         90
         91         92         93         94         95         96         97         98         99        100
        101        102        103        104        105        106        107        108        109        110
        111        112        113        114        115        116        117        118        119        120
        121
 -------------------------------------------------------------------------------------------------------------
     0.0000     0.0000     0.0000     0.0000     0.0000     0.0000     0.0000     0.0000     0.0000     0.0000
     0.0000     0.0000     0.0000     0.0000     0.0000     0.0000     0.0000     0.0000     0.0000     0.0000
     0.0000     0.0000     0.0000     0.0000     0.0000     0.0000     0.0000     0.0000     0.0000     0.0000
     0.0000     0.0000     0.0000     0.0000     0.0000     0.0000     0.0000     0.0000     0.0000     0.0000
     0.0000     0.0000     0.0000     0.0000     0.0000     0.0000     0.0000     0.0000     0.0000     0.0000
     0.0000     0.0000     0.0000     0.0000     0.0000     0.0000     0.0000     0.0000     0.0000     0.0000
     0.0000     0.0000     0.0000     0.0000     0.0000     0.0000     0.0000     0.0000     0.0000     0.0000
     0.0000     0.0000     0.0000     0.0000     0.0000     0.0000     0.0000     0.0000     0.0000     0.0000
     0.0000     0.0000     0.0000     0.0000     0.0000     0.0000     0.0000     0.0000     0.0000     0.0000
     0.0000     0.0000     0.0000     0.0000     0.0000     0.0000     0.0000     0.0000     0.0000     0.0000
     0.0000     0.0000     0.0000     0.0000     0.0000     0.0000     0.0000     0.0000     0.0000     0.0000
     0.0000     0.0000     0.0000     0.0000     0.0000     0.0000     0.0000     0.0000     0.0000     0.0000
     0.0000


 DOWNSTREAM REACH FOR EACH REACH GROUP (RCHGRP) FOR STRESS PERIOD
 -----------------------------------------------------------------------------------
 RG0001 =    1 RG0002 =    2 RG0003 =    3 RG0004 =    4 RG0005 =    5 RG0006 =    6
 RG0007 =    7 RG0008 =    8 RG0009 =    9 RG0010 =   10 RG0011 =   11 RG0012 =   12
 RG0013 =   13 RG0014 =   14 RG0015 =   15 RG0016 =   16 RG0017 =   17 RG0018 =   18
 RG0019 =   19 RG0020 =   20 RG0021 =   21 RG0022 =   22 RG0023 =   23 RG0024 =   24
 RG0025 =   25 RG0026 =   26 RG0027 =   27 RG0028 =   28 RG0029 =   29 RG0030 =   30
 RG0031 =   31 RG0032 =   32 RG0033 =   33 RG0034 =   34 RG0035 =   35 RG0036 =   36
 RG0037 =   37 RG0038 =   38 RG0039 =   39 RG0040 =   40 RG0041 =   41 RG0042 =   42
 RG0043 =   43 RG0044 =   44 RG0045 =   45 RG0046 =   46 RG0047 =   47 RG0048 =   48
 RG0049 =   49 RG0050 =   50 RG0051 =   51 RG0052 =   52 RG0053 =   53 RG0054 =   54
 RG0055 =   55 RG0056 =   56 RG0057 =   57 RG0058 =   58 RG0059 =   59 RG0060 =   60
 RG0061 =   61 RG0062 =   62 RG0063 =   63 RG0064 =   64 RG0065 =   65 RG0066 =   66
 RG0067 =   67 RG0068 =   68 RG0069 =   69 RG0070 =   70 RG0071 =   71 RG0072 =   72
 RG0073 =   73 RG0074 =   74 RG0075 =   75 RG0076 =   76 RG0077 =   77 RG0078 =   78
 RG0079 =   79 RG0080 =   80 RG0081 =   81 RG0082 =   82 RG0083 =   83 RG0084 =   84
 RG0085 =   85 RG0086 =   86 RG0087 =   87 RG0088 =   88 RG0089 =   89 RG0090 =   90
 RG0091 =   91 RG0092 =   92 RG0093 =   93 RG0094 =   94 RG0095 =   95 RG0096 =   96
 RG0097 =   97 RG0098 =   98 RG0099 =   99 RG0100 =  100 RG0101 =  101 RG0102 =  102
 RG0103 =  103 RG0104 =  104 RG0105 =  105 RG0106 =  106 RG0107 =  107 RG0108 =  108
 RG0109 =  109 RG0110 =  110 RG0111 =  111 RG0112 =  112 RG0113 =  113 RG0114 =  114
 RG0115 =  115 RG0116 =  116 RG0117 =  117 RG0118 =  118 RG0119 =  119 RG0120 =  120
 RG0121 =  121


 NEW RATING CURVE FOR REACH GROUPS FOR STRESS PERIOD
 ------------------------------------------------------------------------------------------

 REACH GROUP =     1 GROUP =     1

          N   ELEVATION [L]       DEPTH [L]     VOLUME [L3]
 ---------- --------------- --------------- ---------------
          1    1.050000        0.000000        0.000000    
          2    1.050001       0.1000000E-05   0.2500000    
          3    1.550001       0.5000011        125000.3    
          4    2.050001        1.000001        250000.3    
          5    2.550001        1.500001        375000.3    
          6    3.050001        2.000001        500000.4    
          7    3.550001        2.500002        625000.4    
          8    4.050002        3.000002        750000.4    
          9    4.550002        3.500002        875000.4    
         10    5.050002        4.000002        1000000.    
         11    5.550002        4.500002        1125000.    
         12    6.050000        5.000000        1250000.    
         13    6.050001        5.000001        1250000.    
         14    16.05000        15.00000        3750000.    

 REACH GROUP =     2 GROUP =     2

          N   ELEVATION [L]       DEPTH [L]     VOLUME [L3]
 ---------- --------------- --------------- ---------------
          1    1.050000        0.000000        0.000000    
          2    1.050001       0.1000000E-05   0.2500000    
          3    1.550001       0.5000011        125000.3    
          4    2.050001        1.000001        250000.3    
          5    2.550001        1.500001        375000.3    
          6    3.050001        2.000001        500000.4    
          7    3.550001        2.500002        625000.4    
          8    4.050002        3.000002        750000.4    
          9    4.550002        3.500002        875000.4    
         10    5.050002        4.000002        1000000.    
         11    5.550002        4.500002        1125000.    
         12    6.050000        5.000000        1250000.    
         13    6.050001        5.000001        1250000.    
         14    16.05000        15.00000        3750000.    

 REACH GROUP =     3 GROUP =     3

          N   ELEVATION [L]       DEPTH [L]     VOLUME [L3]
 ---------- --------------- --------------- ---------------
          1    1.050000        0.000000        0.000000    
          2    1.050001       0.1000000E-05   0.2500000    
          3    1.550001       0.5000011        125000.3    
          4    2.050001        1.000001        250000.3    
          5    2.550001        1.500001        375000.3    
          6    3.050001        2.000001        500000.4    
          7    3.550001        2.500002        625000.4    
          8    4.050002        3.000002        750000.4    
          9    4.550002        3.500002        875000.4    
         10    5.050002        4.000002        1000000.    
         11    5.550002        4.500002        1125000.    
         12    6.050000        5.000000        1250000.    
         13    6.050001        5.000001        1250000.    
         14    16.05000        15.00000        3750000.    

 REACH GROUP =     4 GROUP =     4

          N   ELEVATION [L]       DEPTH [L]     VOLUME [L3]
 ---------- --------------- --------------- ---------------
          1    1.050000        0.000000        0.000000    
          2    1.050001       0.1000000E-05   0.2500000    
          3    1.550001       0.5000011        125000.3    
          4    2.050001        1.000001        250000.3    
          5    2.550001        1.500001        375000.3    
          6    3.050001        2.000001        500000.4    
          7    3.550001        2.500002        625000.4    
          8    4.050002        3.000002        750000.4    
          9    4.550002        3.500002        875000.4    
         10    5.050002        4.000002        1000000.    
         11    5.550002        4.500002        1125000.    
         12    6.050000        5.000000        1250000.    
         13    6.050001        5.000001        1250000.    
         14    16.05000        15.00000        3750000.    

 REACH GROUP =     5 GROUP =     5

          N   ELEVATION [L]       DEPTH [L]     VOLUME [L3]
 ---------- --------------- --------------- ---------------
          1    1.050000        0.000000        0.000000    
          2    1.050001       0.1000000E-05   0.2500000    
          3    1.550001       0.5000011        125000.3    
          4    2.050001        1.000001        250000.3    
          5    2.550001        1.500001        375000.3    
          6    3.050001        2.000001        500000.4    
          7    3.550001        2.500002        625000.4    
          8    4.050002        3.000002        750000.4    
          9    4.550002        3.500002        875000.4    
         10    5.050002        4.000002        1000000.    
         11    5.550002        4.500002        1125000.    
         12    6.050000        5.000000        1250000.    
         13    6.050001        5.000001        1250000.    
         14    16.05000        15.00000        3750000.    

 REACH GROUP =     6 GROUP =     6

          N   ELEVATION [L]       DEPTH [L]     VOLUME [L3]
 ---------- --------------- --------------- ---------------
          1    1.050000        0.000000        0.000000    
          2    1.050001       0.1000000E-05   0.2500000    
          3    1.550001       0.5000011        125000.3    
          4    2.050001        1.000001        250000.3    
          5    2.550001        1.500001        375000.3    
          6    3.050001        2.000001        500000.4    
          7    3.550001        2.500002        625000.4    
          8    4.050002        3.000002        750000.4    
          9    4.550002        3.500002        875000.4    
         10    5.050002        4.000002        1000000.    
         11    5.550002        4.500002        1125000.    
         12    6.050000        5.000000        1250000.    
         13    6.050001        5.000001        1250000.    
         14    16.05000        15.00000        3750000.    

 REACH GROUP =     7 GROUP =     7

          N   ELEVATION [L]       DEPTH [L]     VOLUME [L3]
 ---------- --------------- --------------- ---------------
          1    1.050000        0.000000        0.000000    
          2    1.050001       0.1000000E-05   0.2500000    
          3    1.550001       0.5000011        125000.3    
          4    2.050001        1.000001        250000.3    
          5    2.550001        1.500001        375000.3    
          6    3.050001        2.000001        500000.4    
          7    3.550001        2.500002        625000.4    
          8    4.050002        3.000002        750000.4    
          9    4.550002        3.500002        875000.4    
         10    5.050002        4.000002        1000000.    
         11    5.550002        4.500002        1125000.    
         12    6.050000        5.000000        1250000.    
         13    6.050001        5.000001        1250000.    
         14    16.05000        15.00000        3750000.    

 REACH GROUP =     8 GROUP =     8

          N   ELEVATION [L]       DEPTH [L]     VOLUME [L3]
 ---------- --------------- --------------- ---------------
          1    1.050000        0.000000        0.000000    
          2    1.050001       0.1000000E-05   0.2500000    
          3    1.550001       0.5000011        125000.3    
          4    2.050001        1.000001        250000.3    
          5    2.550001        1.500001        375000.3    
          6    3.050001        2.000001        500000.4    
          7    3.550001        2.500002        625000.4    
          8    4.050002        3.000002        750000.4    
          9    4.550002        3.500002        875000.4    
         10    5.050002        4.000002        1000000.    
         11    5.550002        4.500002        1125000.    
         12    6.050000        5.000000        1250000.    
         13    6.050001        5.000001        1250000.    
         14    16.05000        15.00000        3750000.    

 REACH GROUP =     9 GROUP =     9

          N   ELEVATION [L]       DEPTH [L]     VOLUME [L3]
 ---------- --------------- --------------- ---------------
          1    1.050000        0.000000        0.000000    
          2    1.050001       0.1000000E-05   0.2500000    
          3    1.550001       0.5000011        125000.3    
          4    2.050001        1.000001        250000.3    
          5    2.550001        1.500001        375000.3    
          6    3.050001        2.000001        500000.4    
          7    3.550001        2.500002        625000.4    
          8    4.050002        3.000002        750000.4    
          9    4.550002        3.500002        875000.4    
         10    5.050002        4.000002        1000000.    
         11    5.550002        4.500002        1125000.    
         12    6.050000        5.000000        1250000.    
         13    6.050001        5.000001        1250000.    
         14    16.05000        15.00000        3750000.    

 REACH GROUP =    10 GROUP =    10

          N   ELEVATION [L]       DEPTH [L]     VOLUME [L3]
 ---------- --------------- --------------- ---------------
          1    1.050000        0.000000        0.000000    
          2    1.050001       0.1000000E-05   0.2500000    
          3    1.550001       0.5000011        125000.3    
          4    2.050001        1.000001        250000.3    
          5    2.550001        1.500001        375000.3    
          6    3.050001        2.000001        500000.4    
          7    3.550001        2.500002        625000.4    
          8    4.050002        3.000002        750000.4    
          9    4.550002        3.500002        875000.4    
         10    5.050002        4.000002        1000000.    
         11    5.550002        4.500002        1125000.    
         12    6.050000        5.000000        1250000.    
         13    6.050001        5.000001        1250000.    
         14    16.05000        15.00000        3750000.    

 REACH GROUP =    11 GROUP =    11

          N   ELEVATION [L]       DEPTH [L]     VOLUME [L3]
 ---------- --------------- --------------- ---------------
          1    1.050000        0.000000        0.000000    
          2    1.050001       0.1000000E-05   0.2500000    
          3    1.550001       0.5000011        125000.3    
          4    2.050001        1.000001        250000.3    
          5    2.550001        1.500001        375000.3    
          6    3.050001        2.000001        500000.4    
          7    3.550001        2.500002        625000.4    
          8    4.050002        3.000002        750000.4    
          9    4.550002        3.500002        875000.4    
         10    5.050002        4.000002        1000000.    
         11    5.550002        4.500002        1125000.    
         12    6.050000        5.000000        1250000.    
         13    6.050001        5.000001        1250000.    
         14    16.05000        15.00000        3750000.    

 REACH GROUP =    12 GROUP =    12

          N   ELEVATION [L]       DEPTH [L]     VOLUME [L3]
 ---------- --------------- --------------- ---------------
          1   0.9500000        0.000000        0.000000    
          2   0.9500010       0.1000000E-05   0.2500000    
          3    1.450001       0.5000011        125000.3    
          4    1.950001        1.000001        250000.3    
          5    2.450001        1.500001        375000.3    
          6    2.950001        2.000001        500000.4    
          7    3.450001        2.500002        625000.4    
          8    3.950002        3.000002        750000.4    
          9    4.450002        3.500002        875000.4    
         10    4.950002        4.000002        1000000.    
         11    5.450002        4.500002        1125000.    
         12    5.950000        5.000000        1250000.    
         13    5.950001        5.000001        1250000.    
         14    15.95000        15.00000        3750000.    

 REACH GROUP =    13 GROUP =    13

          N   ELEVATION [L]       DEPTH [L]     VOLUME [L3]
 ---------- --------------- --------------- ---------------
          1   0.9500000        0.000000        0.000000    
          2   0.9500010       0.1000000E-05   0.2500000    
          3    1.450001       0.5000011        125000.3    
          4    1.950001        1.000001        250000.3    
          5    2.450001        1.500001        375000.3    
          6    2.950001        2.000001        500000.4    
          7    3.450001        2.500002        625000.4    
          8    3.950002        3.000002        750000.4    
          9    4.450002        3.500002        875000.4    
         10    4.950002        4.000002        1000000.    
         11    5.450002        4.500002        1125000.    
         12    5.950000        5.000000        1250000.    
         13    5.950001        5.000001        1250000.    
         14    15.95000        15.00000        3750000.    

 REACH GROUP =    14 GROUP =    14

          N   ELEVATION [L]       DEPTH [L]     VOLUME [L3]
 ---------- --------------- --------------- ---------------
          1   0.9500000        0.000000        0.000000    
          2   0.9500010       0.1000000E-05   0.2500000    
          3    1.450001       0.5000011        125000.3    
          4    1.950001        1.000001        250000.3    
          5    2.450001        1.500001        375000.3    
          6    2.950001        2.000001        500000.4    
          7    3.450001        2.500002        625000.4    
          8    3.950002        3.000002        750000.4    
          9    4.450002        3.500002        875000.4    
         10    4.950002        4.000002        1000000.    
         11    5.450002        4.500002        1125000.    
         12    5.950000        5.000000        1250000.    
         13    5.950001        5.000001        1250000.    
         14    15.95000        15.00000        3750000.    

 REACH GROUP =    15 GROUP =    15

          N   ELEVATION [L]       DEPTH [L]     VOLUME [L3]
 ---------- --------------- --------------- ---------------
          1   0.9500000        0.000000        0.000000    
          2   0.9500010       0.1000000E-05   0.2500000    
          3    1.450001       0.5000011        125000.3    
          4    1.950001        1.000001        250000.3    
          5    2.450001        1.500001        375000.3    
          6    2.950001        2.000001        500000.4    
          7    3.450001        2.500002        625000.4    
          8    3.950002        3.000002        750000.4    
          9    4.450002        3.500002        875000.4    
         10    4.950002        4.000002        1000000.    
         11    5.450002        4.500002        1125000.    
         12    5.950000        5.000000        1250000.    
         13    5.950001        5.000001        1250000.    
         14    15.95000        15.00000        3750000.    

 REACH GROUP =    16 GROUP =    16

          N   ELEVATION [L]       DEPTH [L]     VOLUME [L3]
 ---------- --------------- --------------- ---------------
          1   0.9500000        0.000000        0.000000    
          2   0.9500010       0.1000000E-05   0.2500000    
          3    1.450001       0.5000011        125000.3    
          4    1.950001        1.000001        250000.3    
          5    2.450001        1.500001        375000.3    
          6    2.950001        2.000001        500000.4    
          7    3.450001        2.500002        625000.4    
          8    3.950002        3.000002        750000.4    
          9    4.450002        3.500002        875000.4    
         10    4.950002        4.000002        1000000.    
         11    5.450002        4.500002        1125000.    
         12    5.950000        5.000000        1250000.    
         13    5.950001        5.000001        1250000.    
         14    15.95000        15.00000        3750000.    

 REACH GROUP =    17 GROUP =    17

          N   ELEVATION [L]       DEPTH [L]     VOLUME [L3]
 ---------- --------------- --------------- ---------------
          1   0.9500000        0.000000        0.000000    
          2   0.9500010       0.1000000E-05   0.2500000    
          3    1.450001       0.5000011        125000.3    
          4    1.950001        1.000001        250000.3    
          5    2.450001        1.500001        375000.3    
          6    2.950001        2.000001        500000.4    
          7    3.450001        2.500002        625000.4    
          8    3.950002        3.000002        750000.4    
          9    4.450002        3.500002        875000.4    
         10    4.950002        4.000002        1000000.    
         11    5.450002        4.500002        1125000.    
         12    5.950000        5.000000        1250000.    
         13    5.950001        5.000001        1250000.    
         14    15.95000        15.00000        3750000.    

 REACH GROUP =    18 GROUP =    18

          N   ELEVATION [L]       DEPTH [L]     VOLUME [L3]
 ---------- --------------- --------------- ---------------
          1   0.9500000        0.000000        0.000000    
          2   0.9500010       0.1000000E-05   0.2500000    
          3    1.450001       0.5000011        125000.3    
          4    1.950001        1.000001        250000.3    
          5    2.450001        1.500001        375000.3    
          6    2.950001        2.000001        500000.4    
          7    3.450001        2.500002        625000.4    
          8    3.950002        3.000002        750000.4    
          9    4.450002        3.500002        875000.4    
         10    4.950002        4.000002        1000000.    
         11    5.450002        4.500002        1125000.    
         12    5.950000        5.000000        1250000.    
         13    5.950001        5.000001        1250000.    
         14    15.95000        15.00000        3750000.    

 REACH GROUP =    19 GROUP =    19

          N   ELEVATION [L]       DEPTH [L]     VOLUME [L3]
 ---------- --------------- --------------- ---------------
          1   0.9500000        0.000000        0.000000    
          2   0.9500010       0.1000000E-05   0.2500000    
          3    1.450001       0.5000011        125000.3    
          4    1.950001        1.000001        250000.3    
          5    2.450001        1.500001        375000.3    
          6    2.950001        2.000001        500000.4    
          7    3.450001        2.500002        625000.4    
          8    3.950002        3.000002        750000.4    
          9    4.450002        3.500002        875000.4    
         10    4.950002        4.000002        1000000.    
         11    5.450002        4.500002        1125000.    
         12    5.950000        5.000000        1250000.    
         13    5.950001        5.000001        1250000.    
         14    15.95000        15.00000        3750000.    

 REACH GROUP =    20 GROUP =    20

          N   ELEVATION [L]       DEPTH [L]     VOLUME [L3]
 ---------- --------------- --------------- ---------------
          1   0.9500000        0.000000        0.000000    
          2   0.9500010       0.1000000E-05   0.2500000    
          3    1.450001       0.5000011        125000.3    
          4    1.950001        1.000001        250000.3    
          5    2.450001        1.500001        375000.3    
          6    2.950001        2.000001        500000.4    
          7    3.450001        2.500002        625000.4    
          8    3.950002        3.000002        750000.4    
          9    4.450002        3.500002        875000.4    
         10    4.950002        4.000002        1000000.    
         11    5.450002        4.500002        1125000.    
         12    5.950000        5.000000        1250000.    
         13    5.950001        5.000001        1250000.    
         14    15.95000        15.00000        3750000.    

 REACH GROUP =    21 GROUP =    21

          N   ELEVATION [L]       DEPTH [L]     VOLUME [L3]
 ---------- --------------- --------------- ---------------
          1   0.9500000        0.000000        0.000000    
          2   0.9500010       0.1000000E-05   0.2500000    
          3    1.450001       0.5000011        125000.3    
          4    1.950001        1.000001        250000.3    
          5    2.450001        1.500001        375000.3    
          6    2.950001        2.000001        500000.4    
          7    3.450001        2.500002        625000.4    
          8    3.950002        3.000002        750000.4    
          9    4.450002        3.500002        875000.4    
         10    4.950002        4.000002        1000000.    
         11    5.450002        4.500002        1125000.    
         12    5.950000        5.000000        1250000.    
         13    5.950001        5.000001        1250000.    
         14    15.95000        15.00000        3750000.    

 REACH GROUP =    22 GROUP =    22

          N   ELEVATION [L]       DEPTH [L]     VOLUME [L3]
 ---------- --------------- --------------- ---------------
          1   0.9500000        0.000000        0.000000    
          2   0.9500010       0.1000000E-05   0.2500000    
          3    1.450001       0.5000011        125000.3    
          4    1.950001        1.000001        250000.3    
          5    2.450001        1.500001        375000.3    
          6    2.950001        2.000001        500000.4    
          7    3.450001        2.500002        625000.4    
          8    3.950002        3.000002        750000.4    
          9    4.450002        3.500002        875000.4    
         10    4.950002        4.000002        1000000.    
         11    5.450002        4.500002        1125000.    
         12    5.950000        5.000000        1250000.    
         13    5.950001        5.000001        1250000.    
         14    15.95000        15.00000        3750000.    

 REACH GROUP =    23 GROUP =    23

          N   ELEVATION [L]       DEPTH [L]     VOLUME [L3]
 ---------- --------------- --------------- ---------------
          1   0.8500000        0.000000        0.000000    
          2   0.8500010       0.1000000E-05   0.2500000    
          3    1.350001       0.5000011        125000.3    
          4    1.850001        1.000001        250000.3    
          5    2.350001        1.500001        375000.3    
          6    2.850001        2.000001        500000.4    
          7    3.350002        2.500002        625000.4    
          8    3.850002        3.000002        750000.4    
          9    4.350002        3.500002        875000.4    
         10    4.850002        4.000002        1000000.    
         11    5.350002        4.500002        1125000.    
         12    5.850000        5.000000        1250000.    
         13    5.850001        5.000001        1250000.    
         14    15.85000        15.00000        3750000.    

 REACH GROUP =    24 GROUP =    24

          N   ELEVATION [L]       DEPTH [L]     VOLUME [L3]
 ---------- --------------- --------------- ---------------
          1   0.8500000        0.000000        0.000000    
          2   0.8500010       0.1000000E-05   0.2500000    
          3    1.350001       0.5000011        125000.3    
          4    1.850001        1.000001        250000.3    
          5    2.350001        1.500001        375000.3    
          6    2.850001        2.000001        500000.4    
          7    3.350002        2.500002        625000.4    
          8    3.850002        3.000002        750000.4    
          9    4.350002        3.500002        875000.4    
         10    4.850002        4.000002        1000000.    
         11    5.350002        4.500002        1125000.    
         12    5.850000        5.000000        1250000.    
         13    5.850001        5.000001        1250000.    
         14    15.85000        15.00000        3750000.    

 REACH GROUP =    25 GROUP =    25

          N   ELEVATION [L]       DEPTH [L]     VOLUME [L3]
 ---------- --------------- --------------- ---------------
          1   0.8500000        0.000000        0.000000    
          2   0.8500010       0.1000000E-05   0.2500000    
          3    1.350001       0.5000011        125000.3    
          4    1.850001        1.000001        250000.3    
          5    2.350001        1.500001        375000.3    
          6    2.850001        2.000001        500000.4    
          7    3.350002        2.500002        625000.4    
          8    3.850002        3.000002        750000.4    
          9    4.350002        3.500002        875000.4    
         10    4.850002        4.000002        1000000.    
         11    5.350002        4.500002        1125000.    
         12    5.850000        5.000000        1250000.    
         13    5.850001        5.000001        1250000.    
         14    15.85000        15.00000        3750000.    

 REACH GROUP =    26 GROUP =    26

          N   ELEVATION [L]       DEPTH [L]     VOLUME [L3]
 ---------- --------------- --------------- ---------------
          1   0.8500000        0.000000        0.000000    
          2   0.8500010       0.1000000E-05   0.2500000    
          3    1.350001       0.5000011        125000.3    
          4    1.850001        1.000001        250000.3    
          5    2.350001        1.500001        375000.3    
          6    2.850001        2.000001        500000.4    
          7    3.350002        2.500002        625000.4    
          8    3.850002        3.000002        750000.4    
          9    4.350002        3.500002        875000.4    
         10    4.850002        4.000002        1000000.    
         11    5.350002        4.500002        1125000.    
         12    5.850000        5.000000        1250000.    
         13    5.850001        5.000001        1250000.    
         14    15.85000        15.00000        3750000.    

 REACH GROUP =    27 GROUP =    27

          N   ELEVATION [L]       DEPTH [L]     VOLUME [L3]
 ---------- --------------- --------------- ---------------
          1   0.8500000        0.000000        0.000000    
          2   0.8500010       0.1000000E-05   0.2500000    
          3    1.350001       0.5000011        125000.3    
          4    1.850001        1.000001        250000.3    
          5    2.350001        1.500001        375000.3    
          6    2.850001        2.000001        500000.4    
          7    3.350002        2.500002        625000.4    
          8    3.850002        3.000002        750000.4    
          9    4.350002        3.500002        875000.4    
         10    4.850002        4.000002        1000000.    
         11    5.350002        4.500002        1125000.    
         12    5.850000        5.000000        1250000.    
         13    5.850001        5.000001        1250000.    
         14    15.85000        15.00000        3750000.    

 REACH GROUP =    28 GROUP =    28

          N   ELEVATION [L]       DEPTH [L]     VOLUME [L3]
 ---------- --------------- --------------- ---------------
          1   0.8500000        0.000000        0.000000    
          2   0.8500010       0.1000000E-05   0.2500000    
          3    1.350001       0.5000011        125000.3    
          4    1.850001        1.000001        250000.3    
          5    2.350001        1.500001        375000.3    
          6    2.850001        2.000001        500000.4    
          7    3.350002        2.500002        625000.4    
          8    3.850002        3.000002        750000.4    
          9    4.350002        3.500002        875000.4    
         10    4.850002        4.000002        1000000.    
         11    5.350002        4.500002        1125000.    
         12    5.850000        5.000000        1250000.    
         13    5.850001        5.000001        1250000.    
         14    15.85000        15.00000        3750000.    

 REACH GROUP =    29 GROUP =    29

          N   ELEVATION [L]       DEPTH [L]     VOLUME [L3]
 ---------- --------------- --------------- ---------------
          1   0.8500000        0.000000        0.000000    
          2   0.8500010       0.1000000E-05   0.2500000    
          3    1.350001       0.5000011        125000.3    
          4    1.850001        1.000001        250000.3    
          5    2.350001        1.500001        375000.3    
          6    2.850001        2.000001        500000.4    
          7    3.350002        2.500002        625000.4    
          8    3.850002        3.000002        750000.4    
          9    4.350002        3.500002        875000.4    
         10    4.850002        4.000002        1000000.    
         11    5.350002        4.500002        1125000.    
         12    5.850000        5.000000        1250000.    
         13    5.850001        5.000001        1250000.    
         14    15.85000        15.00000        3750000.    

 REACH GROUP =    30 GROUP =    30

          N   ELEVATION [L]       DEPTH [L]     VOLUME [L3]
 ---------- --------------- --------------- ---------------
          1   0.8500000        0.000000        0.000000    
          2   0.8500010       0.1000000E-05   0.2500000    
          3    1.350001       0.5000011        125000.3    
          4    1.850001        1.000001        250000.3    
          5    2.350001        1.500001        375000.3    
          6    2.850001        2.000001        500000.4    
          7    3.350002        2.500002        625000.4    
          8    3.850002        3.000002        750000.4    
          9    4.350002        3.500002        875000.4    
         10    4.850002        4.000002        1000000.    
         11    5.350002        4.500002        1125000.    
         12    5.850000        5.000000        1250000.    
         13    5.850001        5.000001        1250000.    
         14    15.85000        15.00000        3750000.    

 REACH GROUP =    31 GROUP =    31

          N   ELEVATION [L]       DEPTH [L]     VOLUME [L3]
 ---------- --------------- --------------- ---------------
          1   0.8500000        0.000000        0.000000    
          2   0.8500010       0.1000000E-05   0.2500000    
          3    1.350001       0.5000011        125000.3    
          4    1.850001        1.000001        250000.3    
          5    2.350001        1.500001        375000.3    
          6    2.850001        2.000001        500000.4    
          7    3.350002        2.500002        625000.4    
          8    3.850002        3.000002        750000.4    
          9    4.350002        3.500002        875000.4    
         10    4.850002        4.000002        1000000.    
         11    5.350002        4.500002        1125000.    
         12    5.850000        5.000000        1250000.    
         13    5.850001        5.000001        1250000.    
         14    15.85000        15.00000        3750000.    

 REACH GROUP =    32 GROUP =    32

          N   ELEVATION [L]       DEPTH [L]     VOLUME [L3]
 ---------- --------------- --------------- ---------------
          1   0.8500000        0.000000        0.000000    
          2   0.8500010       0.1000000E-05   0.2500000    
          3    1.350001       0.5000011        125000.3    
          4    1.850001        1.000001        250000.3    
          5    2.350001        1.500001        375000.3    
          6    2.850001        2.000001        500000.4    
          7    3.350002        2.500002        625000.4    
          8    3.850002        3.000002        750000.4    
          9    4.350002        3.500002        875000.4    
         10    4.850002        4.000002        1000000.    
         11    5.350002        4.500002        1125000.    
         12    5.850000        5.000000        1250000.    
         13    5.850001        5.000001        1250000.    
         14    15.85000        15.00000        3750000.    

 REACH GROUP =    33 GROUP =    33

          N   ELEVATION [L]       DEPTH [L]     VOLUME [L3]
 ---------- --------------- --------------- ---------------
          1   0.8500000        0.000000        0.000000    
          2   0.8500010       0.1000000E-05   0.2500000    
          3    1.350001       0.5000011        125000.3    
          4    1.850001        1.000001        250000.3    
          5    2.350001        1.500001        375000.3    
          6    2.850001        2.000001        500000.4    
          7    3.350002        2.500002        625000.4    
          8    3.850002        3.000002        750000.4    
          9    4.350002        3.500002        875000.4    
         10    4.850002        4.000002        1000000.    
         11    5.350002        4.500002        1125000.    
         12    5.850000        5.000000        1250000.    
         13    5.850001        5.000001        1250000.    
         14    15.85000        15.00000        3750000.    

 REACH GROUP =    34 GROUP =    34

          N   ELEVATION [L]       DEPTH [L]     VOLUME [L3]
 ---------- --------------- --------------- ---------------
          1   0.7500000        0.000000        0.000000    
          2   0.7500010       0.1000000E-05   0.2500000    
          3    1.250001       0.5000011        125000.3    
          4    1.750001        1.000001        250000.3    
          5    2.250001        1.500001        375000.3    
          6    2.750001        2.000001        500000.4    
          7    3.250002        2.500002        625000.4    
          8    3.750002        3.000002        750000.4    
          9    4.250002        3.500002        875000.4    
         10    4.750002        4.000002        1000000.    
         11    5.250002        4.500002        1125000.    
         12    5.750000        5.000000        1250000.    
         13    5.750001        5.000001        1250000.    
         14    15.75000        15.00000        3750000.    

 REACH GROUP =    35 GROUP =    35

          N   ELEVATION [L]       DEPTH [L]     VOLUME [L3]
 ---------- --------------- --------------- ---------------
          1   0.7500000        0.000000        0.000000    
          2   0.7500010       0.1000000E-05   0.2500000    
          3    1.250001       0.5000011        125000.3    
          4    1.750001        1.000001        250000.3    
          5    2.250001        1.500001        375000.3    
          6    2.750001        2.000001        500000.4    
          7    3.250002        2.500002        625000.4    
          8    3.750002        3.000002        750000.4    
          9    4.250002        3.500002        875000.4    
         10    4.750002        4.000002        1000000.    
         11    5.250002        4.500002        1125000.    
         12    5.750000        5.000000        1250000.    
         13    5.750001        5.000001        1250000.    
         14    15.75000        15.00000        3750000.    

 REACH GROUP =    36 GROUP =    36

          N   ELEVATION [L]       DEPTH [L]     VOLUME [L3]
 ---------- --------------- --------------- ---------------
          1   0.7500000        0.000000        0.000000    
          2   0.7500010       0.1000000E-05   0.2500000    
          3    1.250001       0.5000011        125000.3    
          4    1.750001        1.000001        250000.3    
          5    2.250001        1.500001        375000.3    
          6    2.750001        2.000001        500000.4    
          7    3.250002        2.500002        625000.4    
          8    3.750002        3.000002        750000.4    
          9    4.250002        3.500002        875000.4    
         10    4.750002        4.000002        1000000.    
         11    5.250002        4.500002        1125000.    
         12    5.750000        5.000000        1250000.    
         13    5.750001        5.000001        1250000.    
         14    15.75000        15.00000        3750000.    

 REACH GROUP =    37 GROUP =    37

          N   ELEVATION [L]       DEPTH [L]     VOLUME [L3]
 ---------- --------------- --------------- ---------------
          1   0.7500000        0.000000        0.000000    
          2   0.7500010       0.1000000E-05   0.2500000    
          3    1.250001       0.5000011        125000.3    
          4    1.750001        1.000001        250000.3    
          5    2.250001        1.500001        375000.3    
          6    2.750001        2.000001        500000.4    
          7    3.250002        2.500002        625000.4    
          8    3.750002        3.000002        750000.4    
          9    4.250002        3.500002        875000.4    
         10    4.750002        4.000002        1000000.    
         11    5.250002        4.500002        1125000.    
         12    5.750000        5.000000        1250000.    
         13    5.750001        5.000001        1250000.    
         14    15.75000        15.00000        3750000.    

 REACH GROUP =    38 GROUP =    38

          N   ELEVATION [L]       DEPTH [L]     VOLUME [L3]
 ---------- --------------- --------------- ---------------
          1   0.7500000        0.000000        0.000000    
          2   0.7500010       0.1000000E-05   0.2500000    
          3    1.250001       0.5000011        125000.3    
          4    1.750001        1.000001        250000.3    
          5    2.250001        1.500001        375000.3    
          6    2.750001        2.000001        500000.4    
          7    3.250002        2.500002        625000.4    
          8    3.750002        3.000002        750000.4    
          9    4.250002        3.500002        875000.4    
         10    4.750002        4.000002        1000000.    
         11    5.250002        4.500002        1125000.    
         12    5.750000        5.000000        1250000.    
         13    5.750001        5.000001        1250000.    
         14    15.75000        15.00000        3750000.    

 REACH GROUP =    39 GROUP =    39

          N   ELEVATION [L]       DEPTH [L]     VOLUME [L3]
 ---------- --------------- --------------- ---------------
          1   0.7500000        0.000000        0.000000    
          2   0.7500010       0.1000000E-05   0.2500000    
          3    1.250001       0.5000011        125000.3    
          4    1.750001        1.000001        250000.3    
          5    2.250001        1.500001        375000.3    
          6    2.750001        2.000001        500000.4    
          7    3.250002        2.500002        625000.4    
          8    3.750002        3.000002        750000.4    
          9    4.250002        3.500002        875000.4    
         10    4.750002        4.000002        1000000.    
         11    5.250002        4.500002        1125000.    
         12    5.750000        5.000000        1250000.    
         13    5.750001        5.000001        1250000.    
         14    15.75000        15.00000        3750000.    

 REACH GROUP =    40 GROUP =    40

          N   ELEVATION [L]       DEPTH [L]     VOLUME [L3]
 ---------- --------------- --------------- ---------------
          1   0.7500000        0.000000        0.000000    
          2   0.7500010       0.1000000E-05   0.2500000    
          3    1.250001       0.5000011        125000.3    
          4    1.750001        1.000001        250000.3    
          5    2.250001        1.500001        375000.3    
          6    2.750001        2.000001        500000.4    
          7    3.250002        2.500002        625000.4    
          8    3.750002        3.000002        750000.4    
          9    4.250002        3.500002        875000.4    
         10    4.750002        4.000002        1000000.    
         11    5.250002        4.500002        1125000.    
         12    5.750000        5.000000        1250000.    
         13    5.750001        5.000001        1250000.    
         14    15.75000        15.00000        3750000.    

 REACH GROUP =    41 GROUP =    41

          N   ELEVATION [L]       DEPTH [L]     VOLUME [L3]
 ---------- --------------- --------------- ---------------
          1   0.7500000        0.000000        0.000000    
          2   0.7500010       0.1000000E-05   0.2500000    
          3    1.250001       0.5000011        125000.3    
          4    1.750001        1.000001        250000.3    
          5    2.250001        1.500001        375000.3    
          6    2.750001        2.000001        500000.4    
          7    3.250002        2.500002        625000.4    
          8    3.750002        3.000002        750000.4    
          9    4.250002        3.500002        875000.4    
         10    4.750002        4.000002        1000000.    
         11    5.250002        4.500002        1125000.    
         12    5.750000        5.000000        1250000.    
         13    5.750001        5.000001        1250000.    
         14    15.75000        15.00000        3750000.    

 REACH GROUP =    42 GROUP =    42

          N   ELEVATION [L]       DEPTH [L]     VOLUME [L3]
 ---------- --------------- --------------- ---------------
          1   0.7500000        0.000000        0.000000    
          2   0.7500010       0.1000000E-05   0.2500000    
          3    1.250001       0.5000011        125000.3    
          4    1.750001        1.000001        250000.3    
          5    2.250001        1.500001        375000.3    
          6    2.750001        2.000001        500000.4    
          7    3.250002        2.500002        625000.4    
          8    3.750002        3.000002        750000.4    
          9    4.250002        3.500002        875000.4    
         10    4.750002        4.000002        1000000.    
         11    5.250002        4.500002        1125000.    
         12    5.750000        5.000000        1250000.    
         13    5.750001        5.000001        1250000.    
         14    15.75000        15.00000        3750000.    

 REACH GROUP =    43 GROUP =    43

          N   ELEVATION [L]       DEPTH [L]     VOLUME [L3]
 ---------- --------------- --------------- ---------------
          1   0.7500000        0.000000        0.000000    
          2   0.7500010       0.1000000E-05   0.2500000    
          3    1.250001       0.5000011        125000.3    
          4    1.750001        1.000001        250000.3    
          5    2.250001        1.500001        375000.3    
          6    2.750001        2.000001        500000.4    
          7    3.250002        2.500002        625000.4    
          8    3.750002        3.000002        750000.4    
          9    4.250002        3.500002        875000.4    
         10    4.750002        4.000002        1000000.    
         11    5.250002        4.500002        1125000.    
         12    5.750000        5.000000        1250000.    
         13    5.750001        5.000001        1250000.    
         14    15.75000        15.00000        3750000.    

 REACH GROUP =    44 GROUP =    44

          N   ELEVATION [L]       DEPTH [L]     VOLUME [L3]
 ---------- --------------- --------------- ---------------
          1   0.7500000        0.000000        0.000000    
          2   0.7500010       0.1000000E-05   0.2500000    
          3    1.250001       0.5000011        125000.3    
          4    1.750001        1.000001        250000.3    
          5    2.250001        1.500001        375000.3    
          6    2.750001        2.000001        500000.4    
          7    3.250002        2.500002        625000.4    
          8    3.750002        3.000002        750000.4    
          9    4.250002        3.500002        875000.4    
         10    4.750002        4.000002        1000000.    
         11    5.250002        4.500002        1125000.    
         12    5.750000        5.000000        1250000.    
         13    5.750001        5.000001        1250000.    
         14    15.75000        15.00000        3750000.    

 REACH GROUP =    45 GROUP =    45

          N   ELEVATION [L]       DEPTH [L]     VOLUME [L3]
 ---------- --------------- --------------- ---------------
          1   0.6500000        0.000000        0.000000    
          2   0.6500010       0.1000000E-05   0.2500000    
          3    1.150001       0.5000011        125000.3    
          4    1.650001        1.000001        250000.3    
          5    2.150001        1.500001        375000.3    
          6    2.650001        2.000001        500000.4    
          7    3.150001        2.500002        625000.4    
          8    3.650002        3.000002        750000.4    
          9    4.150002        3.500002        875000.4    
         10    4.650002        4.000002        1000000.    
         11    5.150002        4.500002        1125000.    
         12    5.650000        5.000000        1250000.    
         13    5.650001        5.000001        1250000.    
         14    15.65000        15.00000        3750000.    

 REACH GROUP =    46 GROUP =    46

          N   ELEVATION [L]       DEPTH [L]     VOLUME [L3]
 ---------- --------------- --------------- ---------------
          1   0.6500000        0.000000        0.000000    
          2   0.6500010       0.1000000E-05   0.2500000    
          3    1.150001       0.5000011        125000.3    
          4    1.650001        1.000001        250000.3    
          5    2.150001        1.500001        375000.3    
          6    2.650001        2.000001        500000.4    
          7    3.150001        2.500002        625000.4    
          8    3.650002        3.000002        750000.4    
          9    4.150002        3.500002        875000.4    
         10    4.650002        4.000002        1000000.    
         11    5.150002        4.500002        1125000.    
         12    5.650000        5.000000        1250000.    
         13    5.650001        5.000001        1250000.    
         14    15.65000        15.00000        3750000.    

 REACH GROUP =    47 GROUP =    47

          N   ELEVATION [L]       DEPTH [L]     VOLUME [L3]
 ---------- --------------- --------------- ---------------
          1   0.6500000        0.000000        0.000000    
          2   0.6500010       0.1000000E-05   0.2500000    
          3    1.150001       0.5000011        125000.3    
          4    1.650001        1.000001        250000.3    
          5    2.150001        1.500001        375000.3    
          6    2.650001        2.000001        500000.4    
          7    3.150001        2.500002        625000.4    
          8    3.650002        3.000002        750000.4    
          9    4.150002        3.500002        875000.4    
         10    4.650002        4.000002        1000000.    
         11    5.150002        4.500002        1125000.    
         12    5.650000        5.000000        1250000.    
         13    5.650001        5.000001        1250000.    
         14    15.65000        15.00000        3750000.    

 REACH GROUP =    48 GROUP =    48

          N   ELEVATION [L]       DEPTH [L]     VOLUME [L3]
 ---------- --------------- --------------- ---------------
          1   0.6500000        0.000000        0.000000    
          2   0.6500010       0.1000000E-05   0.2500000    
          3    1.150001       0.5000011        125000.3    
          4    1.650001        1.000001        250000.3    
          5    2.150001        1.500001        375000.3    
          6    2.650001        2.000001        500000.4    
          7    3.150001        2.500002        625000.4    
          8    3.650002        3.000002        750000.4    
          9    4.150002        3.500002        875000.4    
         10    4.650002        4.000002        1000000.    
         11    5.150002        4.500002        1125000.    
         12    5.650000        5.000000        1250000.    
         13    5.650001        5.000001        1250000.    
         14    15.65000        15.00000        3750000.    

 REACH GROUP =    49 GROUP =    49

          N   ELEVATION [L]       DEPTH [L]     VOLUME [L3]
 ---------- --------------- --------------- ---------------
          1   0.6500000        0.000000        0.000000    
          2   0.6500010       0.1000000E-05   0.2500000    
          3    1.150001       0.5000011        125000.3    
          4    1.650001        1.000001        250000.3    
          5    2.150001        1.500001        375000.3    
          6    2.650001        2.000001        500000.4    
          7    3.150001        2.500002        625000.4    
          8    3.650002        3.000002        750000.4    
          9    4.150002        3.500002        875000.4    
         10    4.650002        4.000002        1000000.    
         11    5.150002        4.500002        1125000.    
         12    5.650000        5.000000        1250000.    
         13    5.650001        5.000001        1250000.    
         14    15.65000        15.00000        3750000.    

 REACH GROUP =    50 GROUP =    50

          N   ELEVATION [L]       DEPTH [L]     VOLUME [L3]
 ---------- --------------- --------------- ---------------
          1   0.6500000        0.000000        0.000000    
          2   0.6500010       0.1000000E-05   0.2500000    
          3    1.150001       0.5000011        125000.3    
          4    1.650001        1.000001        250000.3    
          5    2.150001        1.500001        375000.3    
          6    2.650001        2.000001        500000.4    
          7    3.150001        2.500002        625000.4    
          8    3.650002        3.000002        750000.4    
          9    4.150002        3.500002        875000.4    
         10    4.650002        4.000002        1000000.    
         11    5.150002        4.500002        1125000.    
         12    5.650000        5.000000        1250000.    
         13    5.650001        5.000001        1250000.    
         14    15.65000        15.00000        3750000.    

 REACH GROUP =    51 GROUP =    51

          N   ELEVATION [L]       DEPTH [L]     VOLUME [L3]
 ---------- --------------- --------------- ---------------
          1   0.6500000        0.000000        0.000000    
          2   0.6500010       0.1000000E-05   0.2500000    
          3    1.150001       0.5000011        125000.3    
          4    1.650001        1.000001        250000.3    
          5    2.150001        1.500001        375000.3    
          6    2.650001        2.000001        500000.4    
          7    3.150001        2.500002        625000.4    
          8    3.650002        3.000002        750000.4    
          9    4.150002        3.500002        875000.4    
         10    4.650002        4.000002        1000000.    
         11    5.150002        4.500002        1125000.    
         12    5.650000        5.000000        1250000.    
         13    5.650001        5.000001        1250000.    
         14    15.65000        15.00000        3750000.    

 REACH GROUP =    52 GROUP =    52

          N   ELEVATION [L]       DEPTH [L]     VOLUME [L3]
 ---------- --------------- --------------- ---------------
          1   0.6500000        0.000000        0.000000    
          2   0.6500010       0.1000000E-05   0.2500000    
          3    1.150001       0.5000011        125000.3    
          4    1.650001        1.000001        250000.3    
          5    2.150001        1.500001        375000.3    
          6    2.650001        2.000001        500000.4    
          7    3.150001        2.500002        625000.4    
          8    3.650002        3.000002        750000.4    
          9    4.150002        3.500002        875000.4    
         10    4.650002        4.000002        1000000.    
         11    5.150002        4.500002        1125000.    
         12    5.650000        5.000000        1250000.    
         13    5.650001        5.000001        1250000.    
         14    15.65000        15.00000        3750000.    

 REACH GROUP =    53 GROUP =    53

          N   ELEVATION [L]       DEPTH [L]     VOLUME [L3]
 ---------- --------------- --------------- ---------------
          1   0.6500000        0.000000        0.000000    
          2   0.6500010       0.1000000E-05   0.2500000    
          3    1.150001       0.5000011        125000.3    
          4    1.650001        1.000001        250000.3    
          5    2.150001        1.500001        375000.3    
          6    2.650001        2.000001        500000.4    
          7    3.150001        2.500002        625000.4    
          8    3.650002        3.000002        750000.4    
          9    4.150002        3.500002        875000.4    
         10    4.650002        4.000002        1000000.    
         11    5.150002        4.500002        1125000.    
         12    5.650000        5.000000        1250000.    
         13    5.650001        5.000001        1250000.    
         14    15.65000        15.00000        3750000.    

 REACH GROUP =    54 GROUP =    54

          N   ELEVATION [L]       DEPTH [L]     VOLUME [L3]
 ---------- --------------- --------------- ---------------
          1   0.6500000        0.000000        0.000000    
          2   0.6500010       0.1000000E-05   0.2500000    
          3    1.150001       0.5000011        125000.3    
          4    1.650001        1.000001        250000.3    
          5    2.150001        1.500001        375000.3    
          6    2.650001        2.000001        500000.4    
          7    3.150001        2.500002        625000.4    
          8    3.650002        3.000002        750000.4    
          9    4.150002        3.500002        875000.4    
         10    4.650002        4.000002        1000000.    
         11    5.150002        4.500002        1125000.    
         12    5.650000        5.000000        1250000.    
         13    5.650001        5.000001        1250000.    
         14    15.65000        15.00000        3750000.    

 REACH GROUP =    55 GROUP =    55

          N   ELEVATION [L]       DEPTH [L]     VOLUME [L3]
 ---------- --------------- --------------- ---------------
          1   0.6500000        0.000000        0.000000    
          2   0.6500010       0.1000000E-05   0.2500000    
          3    1.150001       0.5000011        125000.3    
          4    1.650001        1.000001        250000.3    
          5    2.150001        1.500001        375000.3    
          6    2.650001        2.000001        500000.4    
          7    3.150001        2.500002        625000.4    
          8    3.650002        3.000002        750000.4    
          9    4.150002        3.500002        875000.4    
         10    4.650002        4.000002        1000000.    
         11    5.150002        4.500002        1125000.    
         12    5.650000        5.000000        1250000.    
         13    5.650001        5.000001        1250000.    
         14    15.65000        15.00000        3750000.    

 REACH GROUP =    56 GROUP =    56

          N   ELEVATION [L]       DEPTH [L]     VOLUME [L3]
 ---------- --------------- --------------- ---------------
          1   0.5500000        0.000000        0.000000    
          2   0.5500010       0.1000000E-05   0.2500000    
          3    1.050001       0.5000011        125000.3    
          4    1.550001        1.000001        250000.3    
          5    2.050001        1.500001        375000.3    
          6    2.550001        2.000001        500000.4    
          7    3.050002        2.500002        625000.4    
          8    3.550002        3.000002        750000.4    
          9    4.050002        3.500002        875000.4    
         10    4.550002        4.000002        1000000.    
         11    5.050002        4.500002        1125000.    
         12    5.550000        5.000000        1250000.    
         13    5.550001        5.000001        1250000.    
         14    15.55000        15.00000        3750000.    

 REACH GROUP =    57 GROUP =    57

          N   ELEVATION [L]       DEPTH [L]     VOLUME [L3]
 ---------- --------------- --------------- ---------------
          1   0.5500000        0.000000        0.000000    
          2   0.5500010       0.1000000E-05   0.2500000    
          3    1.050001       0.5000011        125000.3    
          4    1.550001        1.000001        250000.3    
          5    2.050001        1.500001        375000.3    
          6    2.550001        2.000001        500000.4    
          7    3.050002        2.500002        625000.4    
          8    3.550002        3.000002        750000.4    
          9    4.050002        3.500002        875000.4    
         10    4.550002        4.000002        1000000.    
         11    5.050002        4.500002        1125000.    
         12    5.550000        5.000000        1250000.    
         13    5.550001        5.000001        1250000.    
         14    15.55000        15.00000        3750000.    

 REACH GROUP =    58 GROUP =    58

          N   ELEVATION [L]       DEPTH [L]     VOLUME [L3]
 ---------- --------------- --------------- ---------------
          1   0.5500000        0.000000        0.000000    
          2   0.5500010       0.1000000E-05   0.2500000    
          3    1.050001       0.5000011        125000.3    
          4    1.550001        1.000001        250000.3    
          5    2.050001        1.500001        375000.3    
          6    2.550001        2.000001        500000.4    
          7    3.050002        2.500002        625000.4    
          8    3.550002        3.000002        750000.4    
          9    4.050002        3.500002        875000.4    
         10    4.550002        4.000002        1000000.    
         11    5.050002        4.500002        1125000.    
         12    5.550000        5.000000        1250000.    
         13    5.550001        5.000001        1250000.    
         14    15.55000        15.00000        3750000.    

 REACH GROUP =    59 GROUP =    59

          N   ELEVATION [L]       DEPTH [L]     VOLUME [L3]
 ---------- --------------- --------------- ---------------
          1   0.5500000        0.000000        0.000000    
          2   0.5500010       0.1000000E-05   0.2500000    
          3    1.050001       0.5000011        125000.3    
          4    1.550001        1.000001        250000.3    
          5    2.050001        1.500001        375000.3    
          6    2.550001        2.000001        500000.4    
          7    3.050002        2.500002        625000.4    
          8    3.550002        3.000002        750000.4    
          9    4.050002        3.500002        875000.4    
         10    4.550002        4.000002        1000000.    
         11    5.050002        4.500002        1125000.    
         12    5.550000        5.000000        1250000.    
         13    5.550001        5.000001        1250000.    
         14    15.55000        15.00000        3750000.    

 REACH GROUP =    60 GROUP =    60

          N   ELEVATION [L]       DEPTH [L]     VOLUME [L3]
 ---------- --------------- --------------- ---------------
          1   0.5500000        0.000000        0.000000    
          2   0.5500010       0.1000000E-05   0.2500000    
          3    1.050001       0.5000011        125000.3    
          4    1.550001        1.000001        250000.3    
          5    2.050001        1.500001        375000.3    
          6    2.550001        2.000001        500000.4    
          7    3.050002        2.500002        625000.4    
          8    3.550002        3.000002        750000.4    
          9    4.050002        3.500002        875000.4    
         10    4.550002        4.000002        1000000.    
         11    5.050002        4.500002        1125000.    
         12    5.550000        5.000000        1250000.    
         13    5.550001        5.000001        1250000.    
         14    15.55000        15.00000        3750000.    

 REACH GROUP =    61 GROUP =    61

          N   ELEVATION [L]       DEPTH [L]     VOLUME [L3]
 ---------- --------------- --------------- ---------------
          1   0.5500000        0.000000        0.000000    
          2   0.5500010       0.1000000E-05   0.2500000    
          3    1.050001       0.5000011        125000.3    
          4    1.550001        1.000001        250000.3    
          5    2.050001        1.500001        375000.3    
          6    2.550001        2.000001        500000.4    
          7    3.050002        2.500002        625000.4    
          8    3.550002        3.000002        750000.4    
          9    4.050002        3.500002        875000.4    
         10    4.550002        4.000002        1000000.    
         11    5.050002        4.500002        1125000.    
         12    5.550000        5.000000        1250000.    
         13    5.550001        5.000001        1250000.    
         14    15.55000        15.00000        3750000.    

 REACH GROUP =    62 GROUP =    62

          N   ELEVATION [L]       DEPTH [L]     VOLUME [L3]
 ---------- --------------- --------------- ---------------
          1   0.5500000        0.000000        0.000000    
          2   0.5500010       0.1000000E-05   0.2500000    
          3    1.050001       0.5000011        125000.3    
          4    1.550001        1.000001        250000.3    
          5    2.050001        1.500001        375000.3    
          6    2.550001        2.000001        500000.4    
          7    3.050002        2.500002        625000.4    
          8    3.550002        3.000002        750000.4    
          9    4.050002        3.500002        875000.4    
         10    4.550002        4.000002        1000000.    
         11    5.050002        4.500002        1125000.    
         12    5.550000        5.000000        1250000.    
         13    5.550001        5.000001        1250000.    
         14    15.55000        15.00000        3750000.    

 REACH GROUP =    63 GROUP =    63

          N   ELEVATION [L]       DEPTH [L]     VOLUME [L3]
 ---------- --------------- --------------- ---------------
          1   0.5500000        0.000000        0.000000    
          2   0.5500010       0.1000000E-05   0.2500000    
          3    1.050001       0.5000011        125000.3    
          4    1.550001        1.000001        250000.3    
          5    2.050001        1.500001        375000.3    
          6    2.550001        2.000001        500000.4    
          7    3.050002        2.500002        625000.4    
          8    3.550002        3.000002        750000.4    
          9    4.050002        3.500002        875000.4    
         10    4.550002        4.000002        1000000.    
         11    5.050002        4.500002        1125000.    
         12    5.550000        5.000000        1250000.    
         13    5.550001        5.000001        1250000.    
         14    15.55000        15.00000        3750000.    

 REACH GROUP =    64 GROUP =    64

          N   ELEVATION [L]       DEPTH [L]     VOLUME [L3]
 ---------- --------------- --------------- ---------------
          1   0.5500000        0.000000        0.000000    
          2   0.5500010       0.1000000E-05   0.2500000    
          3    1.050001       0.5000011        125000.3    
          4    1.550001        1.000001        250000.3    
          5    2.050001        1.500001        375000.3    
          6    2.550001        2.000001        500000.4    
          7    3.050002        2.500002        625000.4    
          8    3.550002        3.000002        750000.4    
          9    4.050002        3.500002        875000.4    
         10    4.550002        4.000002        1000000.    
         11    5.050002        4.500002        1125000.    
         12    5.550000        5.000000        1250000.    
         13    5.550001        5.000001        1250000.    
         14    15.55000        15.00000        3750000.    

 REACH GROUP =    65 GROUP =    65

          N   ELEVATION [L]       DEPTH [L]     VOLUME [L3]
 ---------- --------------- --------------- ---------------
          1   0.5500000        0.000000        0.000000    
          2   0.5500010       0.1000000E-05   0.2500000    
          3    1.050001       0.5000011        125000.3    
          4    1.550001        1.000001        250000.3    
          5    2.050001        1.500001        375000.3    
          6    2.550001        2.000001        500000.4    
          7    3.050002        2.500002        625000.4    
          8    3.550002        3.000002        750000.4    
          9    4.050002        3.500002        875000.4    
         10    4.550002        4.000002        1000000.    
         11    5.050002        4.500002        1125000.    
         12    5.550000        5.000000        1250000.    
         13    5.550001        5.000001        1250000.    
         14    15.55000        15.00000        3750000.    

 REACH GROUP =    66 GROUP =    66

          N   ELEVATION [L]       DEPTH [L]     VOLUME [L3]
 ---------- --------------- --------------- ---------------
          1   0.5500000        0.000000        0.000000    
          2   0.5500010       0.1000000E-05   0.2500000    
          3    1.050001       0.5000011        125000.3    
          4    1.550001        1.000001        250000.3    
          5    2.050001        1.500001        375000.3    
          6    2.550001        2.000001        500000.4    
          7    3.050002        2.500002        625000.4    
          8    3.550002        3.000002        750000.4    
          9    4.050002        3.500002        875000.4    
         10    4.550002        4.000002        1000000.    
         11    5.050002        4.500002        1125000.    
         12    5.550000        5.000000        1250000.    
         13    5.550001        5.000001        1250000.    
         14    15.55000        15.00000        3750000.    

 REACH GROUP =    67 GROUP =    67

          N   ELEVATION [L]       DEPTH [L]     VOLUME [L3]
 ---------- --------------- --------------- ---------------
          1   0.4500000        0.000000        0.000000    
          2   0.4500010       0.1000000E-05   0.2500000    
          3   0.9500011       0.5000011        125000.3    
          4    1.450001        1.000001        250000.3    
          5    1.950001        1.500001        375000.3    
          6    2.450001        2.000001        500000.4    
          7    2.950001        2.500002        625000.4    
          8    3.450002        3.000002        750000.4    
          9    3.950002        3.500002        875000.4    
         10    4.450002        4.000002        1000000.    
         11    4.950002        4.500002        1125000.    
         12    5.450000        5.000000        1250000.    
         13    5.450001        5.000001        1250000.    
         14    15.45000        15.00000        3750000.    

 REACH GROUP =    68 GROUP =    68

          N   ELEVATION [L]       DEPTH [L]     VOLUME [L3]
 ---------- --------------- --------------- ---------------
          1   0.4500000        0.000000        0.000000    
          2   0.4500010       0.1000000E-05   0.2500000    
          3   0.9500011       0.5000011        125000.3    
          4    1.450001        1.000001        250000.3    
          5    1.950001        1.500001        375000.3    
          6    2.450001        2.000001        500000.4    
          7    2.950001        2.500002        625000.4    
          8    3.450002        3.000002        750000.4    
          9    3.950002        3.500002        875000.4    
         10    4.450002        4.000002        1000000.    
         11    4.950002        4.500002        1125000.    
         12    5.450000        5.000000        1250000.    
         13    5.450001        5.000001        1250000.    
         14    15.45000        15.00000        3750000.    

 REACH GROUP =    69 GROUP =    69

          N   ELEVATION [L]       DEPTH [L]     VOLUME [L3]
 ---------- --------------- --------------- ---------------
          1   0.4500000        0.000000        0.000000    
          2   0.4500010       0.1000000E-05   0.2500000    
          3   0.9500011       0.5000011        125000.3    
          4    1.450001        1.000001        250000.3    
          5    1.950001        1.500001        375000.3    
          6    2.450001        2.000001        500000.4    
          7    2.950001        2.500002        625000.4    
          8    3.450002        3.000002        750000.4    
          9    3.950002        3.500002        875000.4    
         10    4.450002        4.000002        1000000.    
         11    4.950002        4.500002        1125000.    
         12    5.450000        5.000000        1250000.    
         13    5.450001        5.000001        1250000.    
         14    15.45000        15.00000        3750000.    

 REACH GROUP =    70 GROUP =    70

          N   ELEVATION [L]       DEPTH [L]     VOLUME [L3]
 ---------- --------------- --------------- ---------------
          1   0.4500000        0.000000        0.000000    
          2   0.4500010       0.1000000E-05   0.2500000    
          3   0.9500011       0.5000011        125000.3    
          4    1.450001        1.000001        250000.3    
          5    1.950001        1.500001        375000.3    
          6    2.450001        2.000001        500000.4    
          7    2.950001        2.500002        625000.4    
          8    3.450002        3.000002        750000.4    
          9    3.950002        3.500002        875000.4    
         10    4.450002        4.000002        1000000.    
         11    4.950002        4.500002        1125000.    
         12    5.450000        5.000000        1250000.    
         13    5.450001        5.000001        1250000.    
         14    15.45000        15.00000        3750000.    

 REACH GROUP =    71 GROUP =    71

          N   ELEVATION [L]       DEPTH [L]     VOLUME [L3]
 ---------- --------------- --------------- ---------------
          1   0.4500000        0.000000        0.000000    
          2   0.4500010       0.1000000E-05   0.2500000    
          3   0.9500011       0.5000011        125000.3    
          4    1.450001        1.000001        250000.3    
          5    1.950001        1.500001        375000.3    
          6    2.450001        2.000001        500000.4    
          7    2.950001        2.500002        625000.4    
          8    3.450002        3.000002        750000.4    
          9    3.950002        3.500002        875000.4    
         10    4.450002        4.000002        1000000.    
         11    4.950002        4.500002        1125000.    
         12    5.450000        5.000000        1250000.    
         13    5.450001        5.000001        1250000.    
         14    15.45000        15.00000        3750000.    

 REACH GROUP =    72 GROUP =    72

          N   ELEVATION [L]       DEPTH [L]     VOLUME [L3]
 ---------- --------------- --------------- ---------------
          1   0.4500000        0.000000        0.000000    
          2   0.4500010       0.1000000E-05   0.2500000    
          3   0.9500011       0.5000011        125000.3    
          4    1.450001        1.000001        250000.3    
          5    1.950001        1.500001        375000.3    
          6    2.450001        2.000001        500000.4    
          7    2.950001        2.500002        625000.4    
          8    3.450002        3.000002        750000.4    
          9    3.950002        3.500002        875000.4    
         10    4.450002        4.000002        1000000.    
         11    4.950002        4.500002        1125000.    
         12    5.450000        5.000000        1250000.    
         13    5.450001        5.000001        1250000.    
         14    15.45000        15.00000        3750000.    

 REACH GROUP =    73 GROUP =    73

          N   ELEVATION [L]       DEPTH [L]     VOLUME [L3]
 ---------- --------------- --------------- ---------------
          1   0.4500000        0.000000        0.000000    
          2   0.4500010       0.1000000E-05   0.2500000    
          3   0.9500011       0.5000011        125000.3    
          4    1.450001        1.000001        250000.3    
          5    1.950001        1.500001        375000.3    
          6    2.450001        2.000001        500000.4    
          7    2.950001        2.500002        625000.4    
          8    3.450002        3.000002        750000.4    
          9    3.950002        3.500002        875000.4    
         10    4.450002        4.000002        1000000.    
         11    4.950002        4.500002        1125000.    
         12    5.450000        5.000000        1250000.    
         13    5.450001        5.000001        1250000.    
         14    15.45000        15.00000        3750000.    

 REACH GROUP =    74 GROUP =    74

          N   ELEVATION [L]       DEPTH [L]     VOLUME [L3]
 ---------- --------------- --------------- ---------------
          1   0.4500000        0.000000        0.000000    
          2   0.4500010       0.1000000E-05   0.2500000    
          3   0.9500011       0.5000011        125000.3    
          4    1.450001        1.000001        250000.3    
          5    1.950001        1.500001        375000.3    
          6    2.450001        2.000001        500000.4    
          7    2.950001        2.500002        625000.4    
          8    3.450002        3.000002        750000.4    
          9    3.950002        3.500002        875000.4    
         10    4.450002        4.000002        1000000.    
         11    4.950002        4.500002        1125000.    
         12    5.450000        5.000000        1250000.    
         13    5.450001        5.000001        1250000.    
         14    15.45000        15.00000        3750000.    

 REACH GROUP =    75 GROUP =    75

          N   ELEVATION [L]       DEPTH [L]     VOLUME [L3]
 ---------- --------------- --------------- ---------------
          1   0.4500000        0.000000        0.000000    
          2   0.4500010       0.1000000E-05   0.2500000    
          3   0.9500011       0.5000011        125000.3    
          4    1.450001        1.000001        250000.3    
          5    1.950001        1.500001        375000.3    
          6    2.450001        2.000001        500000.4    
          7    2.950001        2.500002        625000.4    
          8    3.450002        3.000002        750000.4    
          9    3.950002        3.500002        875000.4    
         10    4.450002        4.000002        1000000.    
         11    4.950002        4.500002        1125000.    
         12    5.450000        5.000000        1250000.    
         13    5.450001        5.000001        1250000.    
         14    15.45000        15.00000        3750000.    

 REACH GROUP =    76 GROUP =    76

          N   ELEVATION [L]       DEPTH [L]     VOLUME [L3]
 ---------- --------------- --------------- ---------------
          1   0.4500000        0.000000        0.000000    
          2   0.4500010       0.1000000E-05   0.2500000    
          3   0.9500011       0.5000011        125000.3    
          4    1.450001        1.000001        250000.3    
          5    1.950001        1.500001        375000.3    
          6    2.450001        2.000001        500000.4    
          7    2.950001        2.500002        625000.4    
          8    3.450002        3.000002        750000.4    
          9    3.950002        3.500002        875000.4    
         10    4.450002        4.000002        1000000.    
         11    4.950002        4.500002        1125000.    
         12    5.450000        5.000000        1250000.    
         13    5.450001        5.000001        1250000.    
         14    15.45000        15.00000        3750000.    

 REACH GROUP =    77 GROUP =    77

          N   ELEVATION [L]       DEPTH [L]     VOLUME [L3]
 ---------- --------------- --------------- ---------------
          1   0.4500000        0.000000        0.000000    
          2   0.4500010       0.1000000E-05   0.2500000    
          3   0.9500011       0.5000011        125000.3    
          4    1.450001        1.000001        250000.3    
          5    1.950001        1.500001        375000.3    
          6    2.450001        2.000001        500000.4    
          7    2.950001        2.500002        625000.4    
          8    3.450002        3.000002        750000.4    
          9    3.950002        3.500002        875000.4    
         10    4.450002        4.000002        1000000.    
         11    4.950002        4.500002        1125000.    
         12    5.450000        5.000000        1250000.    
         13    5.450001        5.000001        1250000.    
         14    15.45000        15.00000        3750000.    

 REACH GROUP =    78 GROUP =    78

          N   ELEVATION [L]       DEPTH [L]     VOLUME [L3]
 ---------- --------------- --------------- ---------------
          1   0.3500000        0.000000        0.000000    
          2   0.3500010       0.1000000E-05   0.2500000    
          3   0.8500011       0.5000011        125000.3    
          4    1.350001        1.000001        250000.3    
          5    1.850001        1.500001        375000.3    
          6    2.350001        2.000001        500000.4    
          7    2.850001        2.500002        625000.4    
          8    3.350002        3.000002        750000.4    
          9    3.850002        3.500002        875000.4    
         10    4.350002        4.000002        1000000.    
         11    4.850002        4.500002        1125000.    
         12    5.350000        5.000000        1250000.    
         13    5.350001        5.000001        1250000.    
         14    15.35000        15.00000        3750000.    

 REACH GROUP =    79 GROUP =    79

          N   ELEVATION [L]       DEPTH [L]     VOLUME [L3]
 ---------- --------------- --------------- ---------------
          1   0.3500000        0.000000        0.000000    
          2   0.3500010       0.1000000E-05   0.2500000    
          3   0.8500011       0.5000011        125000.3    
          4    1.350001        1.000001        250000.3    
          5    1.850001        1.500001        375000.3    
          6    2.350001        2.000001        500000.4    
          7    2.850001        2.500002        625000.4    
          8    3.350002        3.000002        750000.4    
          9    3.850002        3.500002        875000.4    
         10    4.350002        4.000002        1000000.    
         11    4.850002        4.500002        1125000.    
         12    5.350000        5.000000        1250000.    
         13    5.350001        5.000001        1250000.    
         14    15.35000        15.00000        3750000.    

 REACH GROUP =    80 GROUP =    80

          N   ELEVATION [L]       DEPTH [L]     VOLUME [L3]
 ---------- --------------- --------------- ---------------
          1   0.3500000        0.000000        0.000000    
          2   0.3500010       0.1000000E-05   0.2500000    
          3   0.8500011       0.5000011        125000.3    
          4    1.350001        1.000001        250000.3    
          5    1.850001        1.500001        375000.3    
          6    2.350001        2.000001        500000.4    
          7    2.850001        2.500002        625000.4    
          8    3.350002        3.000002        750000.4    
          9    3.850002        3.500002        875000.4    
         10    4.350002        4.000002        1000000.    
         11    4.850002        4.500002        1125000.    
         12    5.350000        5.000000        1250000.    
         13    5.350001        5.000001        1250000.    
         14    15.35000        15.00000        3750000.    

 REACH GROUP =    81 GROUP =    81

          N   ELEVATION [L]       DEPTH [L]     VOLUME [L3]
 ---------- --------------- --------------- ---------------
          1   0.3500000        0.000000        0.000000    
          2   0.3500010       0.1000000E-05   0.2500000    
          3   0.8500011       0.5000011        125000.3    
          4    1.350001        1.000001        250000.3    
          5    1.850001        1.500001        375000.3    
          6    2.350001        2.000001        500000.4    
          7    2.850001        2.500002        625000.4    
          8    3.350002        3.000002        750000.4    
          9    3.850002        3.500002        875000.4    
         10    4.350002        4.000002        1000000.    
         11    4.850002        4.500002        1125000.    
         12    5.350000        5.000000        1250000.    
         13    5.350001        5.000001        1250000.    
         14    15.35000        15.00000        3750000.    

 REACH GROUP =    82 GROUP =    82

          N   ELEVATION [L]       DEPTH [L]     VOLUME [L3]
 ---------- --------------- --------------- ---------------
          1   0.3500000        0.000000        0.000000    
          2   0.3500010       0.1000000E-05   0.2500000    
          3   0.8500011       0.5000011        125000.3    
          4    1.350001        1.000001        250000.3    
          5    1.850001        1.500001        375000.3    
          6    2.350001        2.000001        500000.4    
          7    2.850001        2.500002        625000.4    
          8    3.350002        3.000002        750000.4    
          9    3.850002        3.500002        875000.4    
         10    4.350002        4.000002        1000000.    
         11    4.850002        4.500002        1125000.    
         12    5.350000        5.000000        1250000.    
         13    5.350001        5.000001        1250000.    
         14    15.35000        15.00000        3750000.    

 REACH GROUP =    83 GROUP =    83

          N   ELEVATION [L]       DEPTH [L]     VOLUME [L3]
 ---------- --------------- --------------- ---------------
          1   0.3500000        0.000000        0.000000    
          2   0.3500010       0.1000000E-05   0.2500000    
          3   0.8500011       0.5000011        125000.3    
          4    1.350001        1.000001        250000.3    
          5    1.850001        1.500001        375000.3    
          6    2.350001        2.000001        500000.4    
          7    2.850001        2.500002        625000.4    
          8    3.350002        3.000002        750000.4    
          9    3.850002        3.500002        875000.4    
         10    4.350002        4.000002        1000000.    
         11    4.850002        4.500002        1125000.    
         12    5.350000        5.000000        1250000.    
         13    5.350001        5.000001        1250000.    
         14    15.35000        15.00000        3750000.    

 REACH GROUP =    84 GROUP =    84

          N   ELEVATION [L]       DEPTH [L]     VOLUME [L3]
 ---------- --------------- --------------- ---------------
          1   0.3500000        0.000000        0.000000    
          2   0.3500010       0.1000000E-05   0.2500000    
          3   0.8500011       0.5000011        125000.3    
          4    1.350001        1.000001        250000.3    
          5    1.850001        1.500001        375000.3    
          6    2.350001        2.000001        500000.4    
          7    2.850001        2.500002        625000.4    
          8    3.350002        3.000002        750000.4    
          9    3.850002        3.500002        875000.4    
         10    4.350002        4.000002        1000000.    
         11    4.850002        4.500002        1125000.    
         12    5.350000        5.000000        1250000.    
         13    5.350001        5.000001        1250000.    
         14    15.35000        15.00000        3750000.    

 REACH GROUP =    85 GROUP =    85

          N   ELEVATION [L]       DEPTH [L]     VOLUME [L3]
 ---------- --------------- --------------- ---------------
          1   0.3500000        0.000000        0.000000    
          2   0.3500010       0.1000000E-05   0.2500000    
          3   0.8500011       0.5000011        125000.3    
          4    1.350001        1.000001        250000.3    
          5    1.850001        1.500001        375000.3    
          6    2.350001        2.000001        500000.4    
          7    2.850001        2.500002        625000.4    
          8    3.350002        3.000002        750000.4    
          9    3.850002        3.500002        875000.4    
         10    4.350002        4.000002        1000000.    
         11    4.850002        4.500002        1125000.    
         12    5.350000        5.000000        1250000.    
         13    5.350001        5.000001        1250000.    
         14    15.35000        15.00000        3750000.    

 REACH GROUP =    86 GROUP =    86

          N   ELEVATION [L]       DEPTH [L]     VOLUME [L3]
 ---------- --------------- --------------- ---------------
          1   0.3500000        0.000000        0.000000    
          2   0.3500010       0.1000000E-05   0.2500000    
          3   0.8500011       0.5000011        125000.3    
          4    1.350001        1.000001        250000.3    
          5    1.850001        1.500001        375000.3    
          6    2.350001        2.000001        500000.4    
          7    2.850001        2.500002        625000.4    
          8    3.350002        3.000002        750000.4    
          9    3.850002        3.500002        875000.4    
         10    4.350002        4.000002        1000000.    
         11    4.850002        4.500002        1125000.    
         12    5.350000        5.000000        1250000.    
         13    5.350001        5.000001        1250000.    
         14    15.35000        15.00000        3750000.    

 REACH GROUP =    87 GROUP =    87

          N   ELEVATION [L]       DEPTH [L]     VOLUME [L3]
 ---------- --------------- --------------- ---------------
          1   0.3500000        0.000000        0.000000    
          2   0.3500010       0.1000000E-05   0.2500000    
          3   0.8500011       0.5000011        125000.3    
          4    1.350001        1.000001        250000.3    
          5    1.850001        1.500001        375000.3    
          6    2.350001        2.000001        500000.4    
          7    2.850001        2.500002        625000.4    
          8    3.350002        3.000002        750000.4    
          9    3.850002        3.500002        875000.4    
         10    4.350002        4.000002        1000000.    
         11    4.850002        4.500002        1125000.    
         12    5.350000        5.000000        1250000.    
         13    5.350001        5.000001        1250000.    
         14    15.35000        15.00000        3750000.    

 REACH GROUP =    88 GROUP =    88

          N   ELEVATION [L]       DEPTH [L]     VOLUME [L3]
 ---------- --------------- --------------- ---------------
          1   0.3500000        0.000000        0.000000    
          2   0.3500010       0.1000000E-05   0.2500000    
          3   0.8500011       0.5000011        125000.3    
          4    1.350001        1.000001        250000.3    
          5    1.850001        1.500001        375000.3    
          6    2.350001        2.000001        500000.4    
          7    2.850001        2.500002        625000.4    
          8    3.350002        3.000002        750000.4    
          9    3.850002        3.500002        875000.4    
         10    4.350002        4.000002        1000000.    
         11    4.850002        4.500002        1125000.    
         12    5.350000        5.000000        1250000.    
         13    5.350001        5.000001        1250000.    
         14    15.35000        15.00000        3750000.    

 REACH GROUP =    89 GROUP =    89

          N   ELEVATION [L]       DEPTH [L]     VOLUME [L3]
 ---------- --------------- --------------- ---------------
          1   0.2500000        0.000000        0.000000    
          2   0.2500010       0.1000000E-05   0.2500000    
          3   0.7500011       0.5000011        125000.3    
          4    1.250001        1.000001        250000.3    
          5    1.750001        1.500001        375000.3    
          6    2.250001        2.000001        500000.4    
          7    2.750002        2.500002        625000.4    
          8    3.250002        3.000002        750000.4    
          9    3.750002        3.500002        875000.4    
         10    4.250002        4.000002        1000000.    
         11    4.750002        4.500002        1125000.    
         12    5.250000        5.000000        1250000.    
         13    5.250001        5.000001        1250000.    
         14    15.25000        15.00000        3750000.    

 REACH GROUP =    90 GROUP =    90

          N   ELEVATION [L]       DEPTH [L]     VOLUME [L3]
 ---------- --------------- --------------- ---------------
          1   0.2500000        0.000000        0.000000    
          2   0.2500010       0.1000000E-05   0.2500000    
          3   0.7500011       0.5000011        125000.3    
          4    1.250001        1.000001        250000.3    
          5    1.750001        1.500001        375000.3    
          6    2.250001        2.000001        500000.4    
          7    2.750002        2.500002        625000.4    
          8    3.250002        3.000002        750000.4    
          9    3.750002        3.500002        875000.4    
         10    4.250002        4.000002        1000000.    
         11    4.750002        4.500002        1125000.    
         12    5.250000        5.000000        1250000.    
         13    5.250001        5.000001        1250000.    
         14    15.25000        15.00000        3750000.    

 REACH GROUP =    91 GROUP =    91

          N   ELEVATION [L]       DEPTH [L]     VOLUME [L3]
 ---------- --------------- --------------- ---------------
          1   0.2500000        0.000000        0.000000    
          2   0.2500010       0.1000000E-05   0.2500000    
          3   0.7500011       0.5000011        125000.3    
          4    1.250001        1.000001        250000.3    
          5    1.750001        1.500001        375000.3    
          6    2.250001        2.000001        500000.4    
          7    2.750002        2.500002        625000.4    
          8    3.250002        3.000002        750000.4    
          9    3.750002        3.500002        875000.4    
         10    4.250002        4.000002        1000000.    
         11    4.750002        4.500002        1125000.    
         12    5.250000        5.000000        1250000.    
         13    5.250001        5.000001        1250000.    
         14    15.25000        15.00000        3750000.    

 REACH GROUP =    92 GROUP =    92

          N   ELEVATION [L]       DEPTH [L]     VOLUME [L3]
 ---------- --------------- --------------- ---------------
          1   0.2500000        0.000000        0.000000    
          2   0.2500010       0.1000000E-05   0.2500000    
          3   0.7500011       0.5000011        125000.3    
          4    1.250001        1.000001        250000.3    
          5    1.750001        1.500001        375000.3    
          6    2.250001        2.000001        500000.4    
          7    2.750002        2.500002        625000.4    
          8    3.250002        3.000002        750000.4    
          9    3.750002        3.500002        875000.4    
         10    4.250002        4.000002        1000000.    
         11    4.750002        4.500002        1125000.    
         12    5.250000        5.000000        1250000.    
         13    5.250001        5.000001        1250000.    
         14    15.25000        15.00000        3750000.    

 REACH GROUP =    93 GROUP =    93

          N   ELEVATION [L]       DEPTH [L]     VOLUME [L3]
 ---------- --------------- --------------- ---------------
          1   0.2500000        0.000000        0.000000    
          2   0.2500010       0.1000000E-05   0.2500000    
          3   0.7500011       0.5000011        125000.3    
          4    1.250001        1.000001        250000.3    
          5    1.750001        1.500001        375000.3    
          6    2.250001        2.000001        500000.4    
          7    2.750002        2.500002        625000.4    
          8    3.250002        3.000002        750000.4    
          9    3.750002        3.500002        875000.4    
         10    4.250002        4.000002        1000000.    
         11    4.750002        4.500002        1125000.    
         12    5.250000        5.000000        1250000.    
         13    5.250001        5.000001        1250000.    
         14    15.25000        15.00000        3750000.    

 REACH GROUP =    94 GROUP =    94

          N   ELEVATION [L]       DEPTH [L]     VOLUME [L3]
 ---------- --------------- --------------- ---------------
          1   0.2500000        0.000000        0.000000    
          2   0.2500010       0.1000000E-05   0.2500000    
          3   0.7500011       0.5000011        125000.3    
          4    1.250001        1.000001        250000.3    
          5    1.750001        1.500001        375000.3    
          6    2.250001        2.000001        500000.4    
          7    2.750002        2.500002        625000.4    
          8    3.250002        3.000002        750000.4    
          9    3.750002        3.500002        875000.4    
         10    4.250002        4.000002        1000000.    
         11    4.750002        4.500002        1125000.    
         12    5.250000        5.000000        1250000.    
         13    5.250001        5.000001        1250000.    
         14    15.25000        15.00000        3750000.    

 REACH GROUP =    95 GROUP =    95

          N   ELEVATION [L]       DEPTH [L]     VOLUME [L3]
 ---------- --------------- --------------- ---------------
          1   0.2500000        0.000000        0.000000    
          2   0.2500010       0.1000000E-05   0.2500000    
          3   0.7500011       0.5000011        125000.3    
          4    1.250001        1.000001        250000.3    
          5    1.750001        1.500001        375000.3    
          6    2.250001        2.000001        500000.4    
          7    2.750002        2.500002        625000.4    
          8    3.250002        3.000002        750000.4    
          9    3.750002        3.500002        875000.4    
         10    4.250002        4.000002        1000000.    
         11    4.750002        4.500002        1125000.    
         12    5.250000        5.000000        1250000.    
         13    5.250001        5.000001        1250000.    
         14    15.25000        15.00000        3750000.    

 REACH GROUP =    96 GROUP =    96

          N   ELEVATION [L]       DEPTH [L]     VOLUME [L3]
 ---------- --------------- --------------- ---------------
          1   0.2500000        0.000000        0.000000    
          2   0.2500010       0.1000000E-05   0.2500000    
          3   0.7500011       0.5000011        125000.3    
          4    1.250001        1.000001        250000.3    
          5    1.750001        1.500001        375000.3    
          6    2.250001        2.000001        500000.4    
          7    2.750002        2.500002        625000.4    
          8    3.250002        3.000002        750000.4    
          9    3.750002        3.500002        875000.4    
         10    4.250002        4.000002        1000000.    
         11    4.750002        4.500002        1125000.    
         12    5.250000        5.000000        1250000.    
         13    5.250001        5.000001        1250000.    
         14    15.25000        15.00000        3750000.    

 REACH GROUP =    97 GROUP =    97

          N   ELEVATION [L]       DEPTH [L]     VOLUME [L3]
 ---------- --------------- --------------- ---------------
          1   0.2500000        0.000000        0.000000    
          2   0.2500010       0.1000000E-05   0.2500000    
          3   0.7500011       0.5000011        125000.3    
          4    1.250001        1.000001        250000.3    
          5    1.750001        1.500001        375000.3    
          6    2.250001        2.000001        500000.4    
          7    2.750002        2.500002        625000.4    
          8    3.250002        3.000002        750000.4    
          9    3.750002        3.500002        875000.4    
         10    4.250002        4.000002        1000000.    
         11    4.750002        4.500002        1125000.    
         12    5.250000        5.000000        1250000.    
         13    5.250001        5.000001        1250000.    
         14    15.25000        15.00000        3750000.    

 REACH GROUP =    98 GROUP =    98

          N   ELEVATION [L]       DEPTH [L]     VOLUME [L3]
 ---------- --------------- --------------- ---------------
          1   0.2500000        0.000000        0.000000    
          2   0.2500010       0.1000000E-05   0.2500000    
          3   0.7500011       0.5000011        125000.3    
          4    1.250001        1.000001        250000.3    
          5    1.750001        1.500001        375000.3    
          6    2.250001        2.000001        500000.4    
          7    2.750002        2.500002        625000.4    
          8    3.250002        3.000002        750000.4    
          9    3.750002        3.500002        875000.4    
         10    4.250002        4.000002        1000000.    
         11    4.750002        4.500002        1125000.    
         12    5.250000        5.000000        1250000.    
         13    5.250001        5.000001        1250000.    
         14    15.25000        15.00000        3750000.    

 REACH GROUP =    99 GROUP =    99

          N   ELEVATION [L]       DEPTH [L]     VOLUME [L3]
 ---------- --------------- --------------- ---------------
          1   0.2500000        0.000000        0.000000    
          2   0.2500010       0.1000000E-05   0.2500000    
          3   0.7500011       0.5000011        125000.3    
          4    1.250001        1.000001        250000.3    
          5    1.750001        1.500001        375000.3    
          6    2.250001        2.000001        500000.4    
          7    2.750002        2.500002        625000.4    
          8    3.250002        3.000002        750000.4    
          9    3.750002        3.500002        875000.4    
         10    4.250002        4.000002        1000000.    
         11    4.750002        4.500002        1125000.    
         12    5.250000        5.000000        1250000.    
         13    5.250001        5.000001        1250000.    
         14    15.25000        15.00000        3750000.    

 REACH GROUP =   100 GROUP =   100

          N   ELEVATION [L]       DEPTH [L]     VOLUME [L3]
 ---------- --------------- --------------- ---------------
          1   0.1500000        0.000000        0.000000    
          2   0.1500010       0.1000000E-05   0.2500000    
          3   0.6500011       0.5000011        125000.3    
          4    1.150001        1.000001        250000.3    
          5    1.650001        1.500001        375000.3    
          6    2.150001        2.000001        500000.4    
          7    2.650002        2.500002        625000.4    
          8    3.150002        3.000002        750000.4    
          9    3.650002        3.500002        875000.4    
         10    4.150002        4.000002        1000000.    
         11    4.650002        4.500002        1125000.    
         12    5.150000        5.000000        1250000.    
         13    5.150001        5.000001        1250000.    
         14    15.15000        15.00000        3750000.    

 REACH GROUP =   101 GROUP =   101

          N   ELEVATION [L]       DEPTH [L]     VOLUME [L3]
 ---------- --------------- --------------- ---------------
          1   0.1500000        0.000000        0.000000    
          2   0.1500010       0.1000000E-05   0.2500000    
          3   0.6500011       0.5000011        125000.3    
          4    1.150001        1.000001        250000.3    
          5    1.650001        1.500001        375000.3    
          6    2.150001        2.000001        500000.4    
          7    2.650002        2.500002        625000.4    
          8    3.150002        3.000002        750000.4    
          9    3.650002        3.500002        875000.4    
         10    4.150002        4.000002        1000000.    
         11    4.650002        4.500002        1125000.    
         12    5.150000        5.000000        1250000.    
         13    5.150001        5.000001        1250000.    
         14    15.15000        15.00000        3750000.    

 REACH GROUP =   102 GROUP =   102

          N   ELEVATION [L]       DEPTH [L]     VOLUME [L3]
 ---------- --------------- --------------- ---------------
          1   0.1500000        0.000000        0.000000    
          2   0.1500010       0.1000000E-05   0.2500000    
          3   0.6500011       0.5000011        125000.3    
          4    1.150001        1.000001        250000.3    
          5    1.650001        1.500001        375000.3    
          6    2.150001        2.000001        500000.4    
          7    2.650002        2.500002        625000.4    
          8    3.150002        3.000002        750000.4    
          9    3.650002        3.500002        875000.4    
         10    4.150002        4.000002        1000000.    
         11    4.650002        4.500002        1125000.    
         12    5.150000        5.000000        1250000.    
         13    5.150001        5.000001        1250000.    
         14    15.15000        15.00000        3750000.    

 REACH GROUP =   103 GROUP =   103

          N   ELEVATION [L]       DEPTH [L]     VOLUME [L3]
 ---------- --------------- --------------- ---------------
          1   0.1500000        0.000000        0.000000    
          2   0.1500010       0.1000000E-05   0.2500000    
          3   0.6500011       0.5000011        125000.3    
          4    1.150001        1.000001        250000.3    
          5    1.650001        1.500001        375000.3    
          6    2.150001        2.000001        500000.4    
          7    2.650002        2.500002        625000.4    
          8    3.150002        3.000002        750000.4    
          9    3.650002        3.500002        875000.4    
         10    4.150002        4.000002        1000000.    
         11    4.650002        4.500002        1125000.    
         12    5.150000        5.000000        1250000.    
         13    5.150001        5.000001        1250000.    
         14    15.15000        15.00000        3750000.    

 REACH GROUP =   104 GROUP =   104

          N   ELEVATION [L]       DEPTH [L]     VOLUME [L3]
 ---------- --------------- --------------- ---------------
          1   0.1500000        0.000000        0.000000    
          2   0.1500010       0.1000000E-05   0.2500000    
          3   0.6500011       0.5000011        125000.3    
          4    1.150001        1.000001        250000.3    
          5    1.650001        1.500001        375000.3    
          6    2.150001        2.000001        500000.4    
          7    2.650002        2.500002        625000.4    
          8    3.150002        3.000002        750000.4    
          9    3.650002        3.500002        875000.4    
         10    4.150002        4.000002        1000000.    
         11    4.650002        4.500002        1125000.    
         12    5.150000        5.000000        1250000.    
         13    5.150001        5.000001        1250000.    
         14    15.15000        15.00000        3750000.    

 REACH GROUP =   105 GROUP =   105

          N   ELEVATION [L]       DEPTH [L]     VOLUME [L3]
 ---------- --------------- --------------- ---------------
          1   0.1500000        0.000000        0.000000    
          2   0.1500010       0.1000000E-05   0.2500000    
          3   0.6500011       0.5000011        125000.3    
          4    1.150001        1.000001        250000.3    
          5    1.650001        1.500001        375000.3    
          6    2.150001        2.000001        500000.4    
          7    2.650002        2.500002        625000.4    
          8    3.150002        3.000002        750000.4    
          9    3.650002        3.500002        875000.4    
         10    4.150002        4.000002        1000000.    
         11    4.650002        4.500002        1125000.    
         12    5.150000        5.000000        1250000.    
         13    5.150001        5.000001        1250000.    
         14    15.15000        15.00000        3750000.    

 REACH GROUP =   106 GROUP =   106

          N   ELEVATION [L]       DEPTH [L]     VOLUME [L3]
 ---------- --------------- --------------- ---------------
          1   0.1500000        0.000000        0.000000    
          2   0.1500010       0.1000000E-05   0.2500000    
          3   0.6500011       0.5000011        125000.3    
          4    1.150001        1.000001        250000.3    
          5    1.650001        1.500001        375000.3    
          6    2.150001        2.000001        500000.4    
          7    2.650002        2.500002        625000.4    
          8    3.150002        3.000002        750000.4    
          9    3.650002        3.500002        875000.4    
         10    4.150002        4.000002        1000000.    
         11    4.650002        4.500002        1125000.    
         12    5.150000        5.000000        1250000.    
         13    5.150001        5.000001        1250000.    
         14    15.15000        15.00000        3750000.    

 REACH GROUP =   107 GROUP =   107

          N   ELEVATION [L]       DEPTH [L]     VOLUME [L3]
 ---------- --------------- --------------- ---------------
          1   0.1500000        0.000000        0.000000    
          2   0.1500010       0.1000000E-05   0.2500000    
          3   0.6500011       0.5000011        125000.3    
          4    1.150001        1.000001        250000.3    
          5    1.650001        1.500001        375000.3    
          6    2.150001        2.000001        500000.4    
          7    2.650002        2.500002        625000.4    
          8    3.150002        3.000002        750000.4    
          9    3.650002        3.500002        875000.4    
         10    4.150002        4.000002        1000000.    
         11    4.650002        4.500002        1125000.    
         12    5.150000        5.000000        1250000.    
         13    5.150001        5.000001        1250000.    
         14    15.15000        15.00000        3750000.    

 REACH GROUP =   108 GROUP =   108

          N   ELEVATION [L]       DEPTH [L]     VOLUME [L3]
 ---------- --------------- --------------- ---------------
          1   0.1500000        0.000000        0.000000    
          2   0.1500010       0.1000000E-05   0.2500000    
          3   0.6500011       0.5000011        125000.3    
          4    1.150001        1.000001        250000.3    
          5    1.650001        1.500001        375000.3    
          6    2.150001        2.000001        500000.4    
          7    2.650002        2.500002        625000.4    
          8    3.150002        3.000002        750000.4    
          9    3.650002        3.500002        875000.4    
         10    4.150002        4.000002        1000000.    
         11    4.650002        4.500002        1125000.    
         12    5.150000        5.000000        1250000.    
         13    5.150001        5.000001        1250000.    
         14    15.15000        15.00000        3750000.    

 REACH GROUP =   109 GROUP =   109

          N   ELEVATION [L]       DEPTH [L]     VOLUME [L3]
 ---------- --------------- --------------- ---------------
          1   0.1500000        0.000000        0.000000    
          2   0.1500010       0.1000000E-05   0.2500000    
          3   0.6500011       0.5000011        125000.3    
          4    1.150001        1.000001        250000.3    
          5    1.650001        1.500001        375000.3    
          6    2.150001        2.000001        500000.4    
          7    2.650002        2.500002        625000.4    
          8    3.150002        3.000002        750000.4    
          9    3.650002        3.500002        875000.4    
         10    4.150002        4.000002        1000000.    
         11    4.650002        4.500002        1125000.    
         12    5.150000        5.000000        1250000.    
         13    5.150001        5.000001        1250000.    
         14    15.15000        15.00000        3750000.    

 REACH GROUP =   110 GROUP =   110

          N   ELEVATION [L]       DEPTH [L]     VOLUME [L3]
 ---------- --------------- --------------- ---------------
          1   0.1500000        0.000000        0.000000    
          2   0.1500010       0.1000000E-05   0.2500000    
          3   0.6500011       0.5000011        125000.3    
          4    1.150001        1.000001        250000.3    
          5    1.650001        1.500001        375000.3    
          6    2.150001        2.000001        500000.4    
          7    2.650002        2.500002        625000.4    
          8    3.150002        3.000002        750000.4    
          9    3.650002        3.500002        875000.4    
         10    4.150002        4.000002        1000000.    
         11    4.650002        4.500002        1125000.    
         12    5.150000        5.000000        1250000.    
         13    5.150001        5.000001        1250000.    
         14    15.15000        15.00000        3750000.    

 REACH GROUP =   111 GROUP =   111

          N   ELEVATION [L]       DEPTH [L]     VOLUME [L3]
 ---------- --------------- --------------- ---------------
          1   0.5000000E-01    0.000000        0.000000    
          2   0.5000100E-01   0.1000000E-05   0.2500000    
          3   0.5500011       0.5000011        125000.3    
          4    1.050001        1.000001        250000.3    
          5    1.550001        1.500001        375000.3    
          6    2.050001        2.000001        500000.4    
          7    2.550002        2.500002        625000.4    
          8    3.050002        3.000002        750000.4    
          9    3.550002        3.500002        875000.4    
         10    4.050002        4.000002        1000000.    
         11    4.550002        4.500002        1125000.    
         12    5.050000        5.000000        1250000.    
         13    5.050001        5.000001        1250000.    
         14    15.05000        15.00000        3750000.    

 REACH GROUP =   112 GROUP =   112

          N   ELEVATION [L]       DEPTH [L]     VOLUME [L3]
 ---------- --------------- --------------- ---------------
          1   0.5000000E-01    0.000000        0.000000    
          2   0.5000100E-01   0.1000000E-05   0.2500000    
          3   0.5500011       0.5000011        125000.3    
          4    1.050001        1.000001        250000.3    
          5    1.550001        1.500001        375000.3    
          6    2.050001        2.000001        500000.4    
          7    2.550002        2.500002        625000.4    
          8    3.050002        3.000002        750000.4    
          9    3.550002        3.500002        875000.4    
         10    4.050002        4.000002        1000000.    
         11    4.550002        4.500002        1125000.    
         12    5.050000        5.000000        1250000.    
         13    5.050001        5.000001        1250000.    
         14    15.05000        15.00000        3750000.    

 REACH GROUP =   113 GROUP =   113

          N   ELEVATION [L]       DEPTH [L]     VOLUME [L3]
 ---------- --------------- --------------- ---------------
          1   0.5000000E-01    0.000000        0.000000    
          2   0.5000100E-01   0.1000000E-05   0.2500000    
          3   0.5500011       0.5000011        125000.3    
          4    1.050001        1.000001        250000.3    
          5    1.550001        1.500001        375000.3    
          6    2.050001        2.000001        500000.4    
          7    2.550002        2.500002        625000.4    
          8    3.050002        3.000002        750000.4    
          9    3.550002        3.500002        875000.4    
         10    4.050002        4.000002        1000000.    
         11    4.550002        4.500002        1125000.    
         12    5.050000        5.000000        1250000.    
         13    5.050001        5.000001        1250000.    
         14    15.05000        15.00000        3750000.    

 REACH GROUP =   114 GROUP =   114

          N   ELEVATION [L]       DEPTH [L]     VOLUME [L3]
 ---------- --------------- --------------- ---------------
          1   0.5000000E-01    0.000000        0.000000    
          2   0.5000100E-01   0.1000000E-05   0.2500000    
          3   0.5500011       0.5000011        125000.3    
          4    1.050001        1.000001        250000.3    
          5    1.550001        1.500001        375000.3    
          6    2.050001        2.000001        500000.4    
          7    2.550002        2.500002        625000.4    
          8    3.050002        3.000002        750000.4    
          9    3.550002        3.500002        875000.4    
         10    4.050002        4.000002        1000000.    
         11    4.550002        4.500002        1125000.    
         12    5.050000        5.000000        1250000.    
         13    5.050001        5.000001        1250000.    
         14    15.05000        15.00000        3750000.    

 REACH GROUP =   115 GROUP =   115

          N   ELEVATION [L]       DEPTH [L]     VOLUME [L3]
 ---------- --------------- --------------- ---------------
          1   0.5000000E-01    0.000000        0.000000    
          2   0.5000100E-01   0.1000000E-05   0.2500000    
          3   0.5500011       0.5000011        125000.3    
          4    1.050001        1.000001        250000.3    
          5    1.550001        1.500001        375000.3    
          6    2.050001        2.000001        500000.4    
          7    2.550002        2.500002        625000.4    
          8    3.050002        3.000002        750000.4    
          9    3.550002        3.500002        875000.4    
         10    4.050002        4.000002        1000000.    
         11    4.550002        4.500002        1125000.    
         12    5.050000        5.000000        1250000.    
         13    5.050001        5.000001        1250000.    
         14    15.05000        15.00000        3750000.    

 REACH GROUP =   116 GROUP =   116

          N   ELEVATION [L]       DEPTH [L]     VOLUME [L3]
 ---------- --------------- --------------- ---------------
          1   0.5000000E-01    0.000000        0.000000    
          2   0.5000100E-01   0.1000000E-05   0.2500000    
          3   0.5500011       0.5000011        125000.3    
          4    1.050001        1.000001        250000.3    
          5    1.550001        1.500001        375000.3    
          6    2.050001        2.000001        500000.4    
          7    2.550002        2.500002        625000.4    
          8    3.050002        3.000002        750000.4    
          9    3.550002        3.500002        875000.4    
         10    4.050002        4.000002        1000000.    
         11    4.550002        4.500002        1125000.    
         12    5.050000        5.000000        1250000.    
         13    5.050001        5.000001        1250000.    
         14    15.05000        15.00000        3750000.    

 REACH GROUP =   117 GROUP =   117

          N   ELEVATION [L]       DEPTH [L]     VOLUME [L3]
 ---------- --------------- --------------- ---------------
          1   0.5000000E-01    0.000000        0.000000    
          2   0.5000100E-01   0.1000000E-05   0.2500000    
          3   0.5500011       0.5000011        125000.3    
          4    1.050001        1.000001        250000.3    
          5    1.550001        1.500001        375000.3    
          6    2.050001        2.000001        500000.4    
          7    2.550002        2.500002        625000.4    
          8    3.050002        3.000002        750000.4    
          9    3.550002        3.500002        875000.4    
         10    4.050002        4.000002        1000000.    
         11    4.550002        4.500002        1125000.    
         12    5.050000        5.000000        1250000.    
         13    5.050001        5.000001        1250000.    
         14    15.05000        15.00000        3750000.    

 REACH GROUP =   118 GROUP =   118

          N   ELEVATION [L]       DEPTH [L]     VOLUME [L3]
 ---------- --------------- --------------- ---------------
          1   0.5000000E-01    0.000000        0.000000    
          2   0.5000100E-01   0.1000000E-05   0.2500000    
          3   0.5500011       0.5000011        125000.3    
          4    1.050001        1.000001        250000.3    
          5    1.550001        1.500001        375000.3    
          6    2.050001        2.000001        500000.4    
          7    2.550002        2.500002        625000.4    
          8    3.050002        3.000002        750000.4    
          9    3.550002        3.500002        875000.4    
         10    4.050002        4.000002        1000000.    
         11    4.550002        4.500002        1125000.    
         12    5.050000        5.000000        1250000.    
         13    5.050001        5.000001        1250000.    
         14    15.05000        15.00000        3750000.    

 REACH GROUP =   119 GROUP =   119

          N   ELEVATION [L]       DEPTH [L]     VOLUME [L3]
 ---------- --------------- --------------- ---------------
          1   0.5000000E-01    0.000000        0.000000    
          2   0.5000100E-01   0.1000000E-05   0.2500000    
          3   0.5500011       0.5000011        125000.3    
          4    1.050001        1.000001        250000.3    
          5    1.550001        1.500001        375000.3    
          6    2.050001        2.000001        500000.4    
          7    2.550002        2.500002        625000.4    
          8    3.050002        3.000002        750000.4    
          9    3.550002        3.500002        875000.4    
         10    4.050002        4.000002        1000000.    
         11    4.550002        4.500002        1125000.    
         12    5.050000        5.000000        1250000.    
         13    5.050001        5.000001        1250000.    
         14    15.05000        15.00000        3750000.    

 REACH GROUP =   120 GROUP =   120

          N   ELEVATION [L]       DEPTH [L]     VOLUME [L3]
 ---------- --------------- --------------- ---------------
          1   0.5000000E-01    0.000000        0.000000    
          2   0.5000100E-01   0.1000000E-05   0.2500000    
          3   0.5500011       0.5000011        125000.3    
          4    1.050001        1.000001        250000.3    
          5    1.550001        1.500001        375000.3    
          6    2.050001        2.000001        500000.4    
          7    2.550002        2.500002        625000.4    
          8    3.050002        3.000002        750000.4    
          9    3.550002        3.500002        875000.4    
         10    4.050002        4.000002        1000000.    
         11    4.550002        4.500002        1125000.    
         12    5.050000        5.000000        1250000.    
         13    5.050001        5.000001        1250000.    
         14    15.05000        15.00000        3750000.    

 REACH GROUP =   121 GROUP =   121

          N   ELEVATION [L]       DEPTH [L]     VOLUME [L3]
 ---------- --------------- --------------- ---------------
          1   0.5000000E-01    0.000000        0.000000    
          2   0.5000100E-01   0.1000000E-05   0.2500000    
          3   0.5500011       0.5000011        125000.3    
          4    1.050001        1.000001        250000.3    
          5    1.550001        1.500001        375000.3    
          6    2.050001        2.000001        500000.4    
          7    2.550002        2.500002        625000.4    
          8    3.050002        3.000002        750000.4    
          9    3.550002        3.500002        875000.4    
         10    4.050002        4.000002        1000000.    
         11    4.550002        4.500002        1125000.    
         12    5.050000        5.000000        1250000.    
         13    5.050001        5.000001        1250000.    
         14    15.05000        15.00000        3750000.    

 -----------------------------------------------------------
 NUMBER OF REACH GROUPS                  =   121

 -----------------------------------------------------------
 MODIFIED COMPRESSED ROW STORAGE DATA STRUCTURE
   DIAGONAL IS FIRST ENTRY IN ENTRIES FOR INDIVIDUAL
   SOLUTION REACH GROUPS
POS.     1     2     3     4     5     6     7     8     9
 -----------------------------------------------------------
RG       1                 2                       3      
SE       1     1     1     2     2     2     2     3     3
JA       1     2    12     2     1     3    13     3     2
IA       1                 4                       8      
IU       2                 6                      10      

cont.
POS.    10    11    12    13    14    15    16    17    18
 -----------------------------------------------------------
RG                   4                       5            
SE       3     3     4     4     4     4     5     5     5
JA       4    14     4     3     5    15     5     4     6
IA                  12                      16            
IU                  14                      18            

cont.
POS.    19    20    21    22    23    24    25    26    27
 -----------------------------------------------------------
RG             6                       7                  
SE       5     6     6     6     6     7     7     7     7
JA      16     6     5     7    17     7     6     8    18
IA            20                      24                  
IU            22                      26                  

cont.
POS.    28    29    30    31    32    33    34    35    36
 -----------------------------------------------------------
RG       8                       9                      10
SE       8     8     8     8     9     9     9     9    10
JA       8     7     9    19     9     8    10    20    10
IA      28                      32                      36
IU      30                      34                      38

cont.
POS.    37    38    39    40    41    42    43    44    45
 -----------------------------------------------------------
RG                        11                12            
SE      10    10    10    11    11    11    12    12    12
JA       9    11    21    11    10    22    12     1    13
IA                        40                43            
IU                        42                45            

cont.
POS.    46    47    48    49    50    51    52    53    54
 -----------------------------------------------------------
RG            13                            14            
SE      12    13    13    13    13    13    14    14    14
JA      23    13     2    12    14    24    14     3    13
IA            47                            52            
IU            50                            55            

cont.
POS.    55    56    57    58    59    60    61    62    63
 -----------------------------------------------------------
RG                  15                            16      
SE      14    14    15    15    15    15    15    16    16
JA      15    25    15     4    14    16    26    16     5
IA                  57                            62      
IU                  60                            65      

cont.
POS.    64    65    66    67    68    69    70    71    72
 -----------------------------------------------------------
RG                        17                            18
SE      16    16    16    17    17    17    17    17    18
JA      15    17    27    17     6    16    18    28    18
IA                        67                            72
IU                        70                            75

cont.
POS.    73    74    75    76    77    78    79    80    81
 -----------------------------------------------------------
RG                              19                        
SE      18    18    18    18    19    19    19    19    19
JA       7    17    19    29    19     8    18    20    30
IA                              77                        
IU                              80                        

cont.
POS.    82    83    84    85    86    87    88    89    90
 -----------------------------------------------------------
RG      20                            21                  
SE      20    20    20    20    20    21    21    21    21
JA      20     9    19    21    31    21    10    20    22
IA      82                            87                  
IU      85                            90                  

cont.
POS.    91    92    93    94    95    96    97    98    99
 -----------------------------------------------------------
RG            22                      23                  
SE      21    22    22    22    22    23    23    23    23
JA      32    22    11    21    33    23    12    24    34
IA            92                      96                  
IU            95                      98                  

cont.
POS.   100   101   102   103   104   105   106   107   108
 -----------------------------------------------------------
RG      24                            25                  
SE      24    24    24    24    24    25    25    25    25
JA      24    13    23    25    35    25    14    24    26
IA     100                           105                  
IU     103                           108                  

cont.
POS.   109   110   111   112   113   114   115   116   117
 -----------------------------------------------------------
RG            26                            27            
SE      25    26    26    26    26    26    27    27    27
JA      36    26    15    25    27    37    27    16    26
IA           110                           115            
IU           113                           118            

cont.
POS.   118   119   120   121   122   123   124   125   126
 -----------------------------------------------------------
RG                  28                            29      
SE      27    27    28    28    28    28    28    29    29
JA      28    38    28    17    27    29    39    29    18
IA                 120                           125      
IU                 123                           128      

cont.
POS.   127   128   129   130   131   132   133   134   135
 -----------------------------------------------------------
RG                        30                            31
SE      29    29    29    30    30    30    30    30    31
JA      28    30    40    30    19    29    31    41    31
IA                       130                           135
IU                       133                           138

cont.
POS.   136   137   138   139   140   141   142   143   144
 -----------------------------------------------------------
RG                              32                        
SE      31    31    31    31    32    32    32    32    32
JA      20    30    32    42    32    21    31    33    43
IA                             140                        
IU                             143                        

cont.
POS.   145   146   147   148   149   150   151   152   153
 -----------------------------------------------------------
RG      33                      34                      35
SE      33    33    33    33    34    34    34    34    35
JA      33    22    32    44    34    23    35    45    35
IA     145                     149                     153
IU     148                     151                     156

cont.
POS.   154   155   156   157   158   159   160   161   162
 -----------------------------------------------------------
RG                              36                        
SE      35    35    35    35    36    36    36    36    36
JA      24    34    36    46    36    25    35    37    47
IA                             158                        
IU                             161                        

cont.
POS.   163   164   165   166   167   168   169   170   171
 -----------------------------------------------------------
RG      37                            38                  
SE      37    37    37    37    37    38    38    38    38
JA      37    26    36    38    48    38    27    37    39
IA     163                           168                  
IU     166                           171                  

cont.
POS.   172   173   174   175   176   177   178   179   180
 -----------------------------------------------------------
RG            39                            40            
SE      38    39    39    39    39    39    40    40    40
JA      49    39    28    38    40    50    40    29    39
IA           173                           178            
IU           176                           181            

cont.
POS.   181   182   183   184   185   186   187   188   189
 -----------------------------------------------------------
RG                  41                            42      
SE      40    40    41    41    41    41    41    42    42
JA      41    51    41    30    40    42    52    42    31
IA                 183                           188      
IU                 186                           191      

cont.
POS.   190   191   192   193   194   195   196   197   198
 -----------------------------------------------------------
RG                        43                            44
SE      42    42    42    43    43    43    43    43    44
JA      41    43    53    43    32    42    44    54    44
IA                       193                           198
IU                       196                           201

cont.
POS.   199   200   201   202   203   204   205   206   207
 -----------------------------------------------------------
RG                        45                      46      
SE      44    44    44    45    45    45    45    46    46
JA      33    43    55    45    34    46    56    46    35
IA                       202                     206      
IU                       204                     209      

cont.
POS.   208   209   210   211   212   213   214   215   216
 -----------------------------------------------------------
RG                        47                            48
SE      46    46    46    47    47    47    47    47    48
JA      45    47    57    47    36    46    48    58    48
IA                       211                           216
IU                       214                           219

cont.
POS.   217   218   219   220   221   222   223   224   225
 -----------------------------------------------------------
RG                              49                        
SE      48    48    48    48    49    49    49    49    49
JA      37    47    49    59    49    38    48    50    60
IA                             221                        
IU                             224                        

cont.
POS.   226   227   228   229   230   231   232   233   234
 -----------------------------------------------------------
RG      50                            51                  
SE      50    50    50    50    50    51    51    51    51
JA      50    39    49    51    61    51    40    50    52
IA     226                           231                  
IU     229                           234                  

cont.
POS.   235   236   237   238   239   240   241   242   243
 -----------------------------------------------------------
RG            52                            53            
SE      51    52    52    52    52    52    53    53    53
JA      62    52    41    51    53    63    53    42    52
IA           236                           241            
IU           239                           244            

cont.
POS.   244   245   246   247   248   249   250   251   252
 -----------------------------------------------------------
RG                  54                            55      
SE      53    53    54    54    54    54    54    55    55
JA      54    64    54    43    53    55    65    55    44
IA                 246                           251      
IU                 249                           254      

cont.
POS.   253   254   255   256   257   258   259   260   261
 -----------------------------------------------------------
RG                  56                      57            
SE      55    55    56    56    56    56    57    57    57
JA      54    66    56    45    57    67    57    46    56
IA                 255                     259            
IU                 257                     262            

cont.
POS.   262   263   264   265   266   267   268   269   270
 -----------------------------------------------------------
RG                  58                            59      
SE      57    57    58    58    58    58    58    59    59
JA      58    68    58    47    57    59    69    59    48
IA                 264                           269      
IU                 267                           272      

cont.
POS.   271   272   273   274   275   276   277   278   279
 -----------------------------------------------------------
RG                        60                            61
SE      59    59    59    60    60    60    60    60    61
JA      58    60    70    60    49    59    61    71    61
IA                       274                           279
IU                       277                           282

cont.
POS.   280   281   282   283   284   285   286   287   288
 -----------------------------------------------------------
RG                              62                        
SE      61    61    61    61    62    62    62    62    62
JA      50    60    62    72    62    51    61    63    73
IA                             284                        
IU                             287                        

cont.
POS.   289   290   291   292   293   294   295   296   297
 -----------------------------------------------------------
RG      63                            64                  
SE      63    63    63    63    63    64    64    64    64
JA      63    52    62    64    74    64    53    63    65
IA     289                           294                  
IU     292                           297                  

cont.
POS.   298   299   300   301   302   303   304   305   306
 -----------------------------------------------------------
RG            65                            66            
SE      64    65    65    65    65    65    66    66    66
JA      75    65    54    64    66    76    66    55    65
IA           299                           304            
IU           302                           307            

cont.
POS.   307   308   309   310   311   312   313   314   315
 -----------------------------------------------------------
RG            67                      68                  
SE      66    67    67    67    67    68    68    68    68
JA      77    67    56    68    78    68    57    67    69
IA           308                     312                  
IU           310                     315                  

cont.
POS.   316   317   318   319   320   321   322   323   324
 -----------------------------------------------------------
RG            69                            70            
SE      68    69    69    69    69    69    70    70    70
JA      79    69    58    68    70    80    70    59    69
IA           317                           322            
IU           320                           325            

cont.
POS.   325   326   327   328   329   330   331   332   333
 -----------------------------------------------------------
RG                  71                            72      
SE      70    70    71    71    71    71    71    72    72
JA      71    81    71    60    70    72    82    72    61
IA                 327                           332      
IU                 330                           335      

cont.
POS.   334   335   336   337   338   339   340   341   342
 -----------------------------------------------------------
RG                        73                            74
SE      72    72    72    73    73    73    73    73    74
JA      71    73    83    73    62    72    74    84    74
IA                       337                           342
IU                       340                           345

cont.
POS.   343   344   345   346   347   348   349   350   351
 -----------------------------------------------------------
RG                              75                        
SE      74    74    74    74    75    75    75    75    75
JA      63    73    75    85    75    64    74    76    86
IA                             347                        
IU                             350                        

cont.
POS.   352   353   354   355   356   357   358   359   360
 -----------------------------------------------------------
RG      76                            77                  
SE      76    76    76    76    76    77    77    77    77
JA      76    65    75    77    87    77    66    76    88
IA     352                           357                  
IU     355                           360                  

cont.
POS.   361   362   363   364   365   366   367   368   369
 -----------------------------------------------------------
RG      78                      79                        
SE      78    78    78    78    79    79    79    79    79
JA      78    67    79    89    79    68    78    80    90
IA     361                     365                        
IU     363                     368                        

cont.
POS.   370   371   372   373   374   375   376   377   378
 -----------------------------------------------------------
RG      80                            81                  
SE      80    80    80    80    80    81    81    81    81
JA      80    69    79    81    91    81    70    80    82
IA     370                           375                  
IU     373                           378                  

cont.
POS.   379   380   381   382   383   384   385   386   387
 -----------------------------------------------------------
RG            82                            83            
SE      81    82    82    82    82    82    83    83    83
JA      92    82    71    81    83    93    83    72    82
IA           380                           385            
IU           383                           388            

cont.
POS.   388   389   390   391   392   393   394   395   396
 -----------------------------------------------------------
RG                  84                            85      
SE      83    83    84    84    84    84    84    85    85
JA      84    94    84    73    83    85    95    85    74
IA                 390                           395      
IU                 393                           398      

cont.
POS.   397   398   399   400   401   402   403   404   405
 -----------------------------------------------------------
RG                        86                            87
SE      85    85    85    86    86    86    86    86    87
JA      84    86    96    86    75    85    87    97    87
IA                       400                           405
IU                       403                           408

cont.
POS.   406   407   408   409   410   411   412   413   414
 -----------------------------------------------------------
RG                              88                      89
SE      87    87    87    87    88    88    88    88    89
JA      76    86    88    98    88    77    87    99    89
IA                             410                     414
IU                             413                     416

cont.
POS.   415   416   417   418   419   420   421   422   423
 -----------------------------------------------------------
RG                        90                            91
SE      89    89    89    90    90    90    90    90    91
JA      78    90   100    90    79    89    91   101    91
IA                       418                           423
IU                       421                           426

cont.
POS.   424   425   426   427   428   429   430   431   432
 -----------------------------------------------------------
RG                              92                        
SE      91    91    91    91    92    92    92    92    92
JA      80    90    92   102    92    81    91    93   103
IA                             428                        
IU                             431                        

cont.
POS.   433   434   435   436   437   438   439   440   441
 -----------------------------------------------------------
RG      93                            94                  
SE      93    93    93    93    93    94    94    94    94
JA      93    82    92    94   104    94    83    93    95
IA     433                           438                  
IU     436                           441                  

cont.
POS.   442   443   444   445   446   447   448   449   450
 -----------------------------------------------------------
RG            95                            96            
SE      94    95    95    95    95    95    96    96    96
JA     105    95    84    94    96   106    96    85    95
IA           443                           448            
IU           446                           451            

cont.
POS.   451   452   453   454   455   456   457   458   459
 -----------------------------------------------------------
RG                  97                            98      
SE      96    96    97    97    97    97    97    98    98
JA      97   107    97    86    96    98   108    98    87
IA                 453                           458      
IU                 456                           461      

cont.
POS.   460   461   462   463   464   465   466   467   468
 -----------------------------------------------------------
RG                        99                     100      
SE      98    98    98    99    99    99    99   100   100
JA      97    99   109    99    88    98   110   100    89
IA                       463                     467      
IU                       466                     469      

cont.
POS.   469   470   471   472   473   474   475   476   477
 -----------------------------------------------------------
RG           101                     102                  
SE     100   101   101   101   101   102   102   102   102
JA     101   101    90   100   102   102    91   101   103
IA           470                     474                  
IU           473                     477                  

cont.
POS.   478   479   480   481   482   483   484   485   486
 -----------------------------------------------------------
RG     103                     104                     105
SE     103   103   103   103   104   104   104   104   105
JA     103    92   102   104   104    93   103   105   105
IA     478                     482                     486
IU     481                     485                     489

cont.
POS.   487   488   489   490   491   492   493   494   495
 -----------------------------------------------------------
RG                       106                     107      
SE     105   105   105   106   106   106   106   107   107
JA      94   104   106   106    95   105   107   107    96
IA                       490                     494      
IU                       493                     497      

cont.
POS.   496   497   498   499   500   501   502   503   504
 -----------------------------------------------------------
RG                 108                     109            
SE     107   107   108   108   108   108   109   109   109
JA     106   108   108    97   107   109   109    98   108
IA                 498                     502            
IU                 501                     505            

cont.
POS.   505   506   507   508   509
 -----------------------------------------------------------
RG           110            
SE     109   110   110   110
JA     110   110    99   109
IA           506               509
IU           508            
 -----------------------------------------------------------

 -----------------------------------------------------------
 FULL REACH CONNECTIVITY FOR EACH REACH GROUP
   A NEGATIVE IRCHC REACH NUMBER INDICATES THE CONNECTION
   IS STRUCTURE CONTROLLED

 -----------------------------------------------------------
 RCHGRP =     1
 IRGNUM =     1
               -----------------CONNECTIONS-----------------
                            1              2
 -----------------------------------------------------------
 IRCHC REACHES     1 TO     2     1 TO    12
 -----------------------------------------------------------

 -----------------------------------------------------------
 RCHGRP =     2
 IRGNUM =     2
               -----------------CONNECTIONS-----------------
                            1              2              3
 -----------------------------------------------------------
 IRCHC REACHES     2 TO     1     2 TO     3     2 TO    13
 -----------------------------------------------------------

 -----------------------------------------------------------
 RCHGRP =     3
 IRGNUM =     3
               -----------------CONNECTIONS-----------------
                            1              2              3
 -----------------------------------------------------------
 IRCHC REACHES     3 TO     2     3 TO     4     3 TO    14
 -----------------------------------------------------------

 -----------------------------------------------------------
 RCHGRP =     4
 IRGNUM =     4
               -----------------CONNECTIONS-----------------
                            1              2              3
 -----------------------------------------------------------
 IRCHC REACHES     4 TO     3     4 TO     5     4 TO    15
 -----------------------------------------------------------

 -----------------------------------------------------------
 RCHGRP =     5
 IRGNUM =     5
               -----------------CONNECTIONS-----------------
                            1              2              3
 -----------------------------------------------------------
 IRCHC REACHES     5 TO     4     5 TO     6     5 TO    16
 -----------------------------------------------------------

 -----------------------------------------------------------
 RCHGRP =     6
 IRGNUM =     6
               -----------------CONNECTIONS-----------------
                            1              2              3
 -----------------------------------------------------------
 IRCHC REACHES     6 TO     5     6 TO     7     6 TO    17
 -----------------------------------------------------------

 -----------------------------------------------------------
 RCHGRP =     7
 IRGNUM =     7
               -----------------CONNECTIONS-----------------
                            1              2              3
 -----------------------------------------------------------
 IRCHC REACHES     7 TO     6     7 TO     8     7 TO    18
 -----------------------------------------------------------

 -----------------------------------------------------------
 RCHGRP =     8
 IRGNUM =     8
               -----------------CONNECTIONS-----------------
                            1              2              3
 -----------------------------------------------------------
 IRCHC REACHES     8 TO     7     8 TO     9     8 TO    19
 -----------------------------------------------------------

 -----------------------------------------------------------
 RCHGRP =     9
 IRGNUM =     9
               -----------------CONNECTIONS-----------------
                            1              2              3
 -----------------------------------------------------------
 IRCHC REACHES     9 TO     8     9 TO    10     9 TO    20
 -----------------------------------------------------------

 -----------------------------------------------------------
 RCHGRP =    10
 IRGNUM =    10
               -----------------CONNECTIONS-----------------
                            1              2              3
 -----------------------------------------------------------
 IRCHC REACHES    10 TO     9    10 TO    11    10 TO    21
 -----------------------------------------------------------

 -----------------------------------------------------------
 RCHGRP =    11
 IRGNUM =    11
               -----------------CONNECTIONS-----------------
                            1              2
 -----------------------------------------------------------
 IRCHC REACHES    11 TO    10    11 TO    22
 -----------------------------------------------------------

 -----------------------------------------------------------
 RCHGRP =    12
 IRGNUM =    12
               -----------------CONNECTIONS-----------------
                            1              2              3
 -----------------------------------------------------------
 IRCHC REACHES    12 TO     1    12 TO    13    12 TO    23
 -----------------------------------------------------------

 -----------------------------------------------------------
 RCHGRP =    13
 IRGNUM =    13
               -----------------CONNECTIONS-----------------
                            1              2              3
                            4
 -----------------------------------------------------------
 IRCHC REACHES    13 TO     2    13 TO    12    13 TO    14
                  13 TO    24
 -----------------------------------------------------------

 -----------------------------------------------------------
 RCHGRP =    14
 IRGNUM =    14
               -----------------CONNECTIONS-----------------
                            1              2              3
                            4
 -----------------------------------------------------------
 IRCHC REACHES    14 TO     3    14 TO    13    14 TO    15
                  14 TO    25
 -----------------------------------------------------------

 -----------------------------------------------------------
 RCHGRP =    15
 IRGNUM =    15
               -----------------CONNECTIONS-----------------
                            1              2              3
                            4
 -----------------------------------------------------------
 IRCHC REACHES    15 TO     4    15 TO    14    15 TO    16
                  15 TO    26
 -----------------------------------------------------------

 -----------------------------------------------------------
 RCHGRP =    16
 IRGNUM =    16
               -----------------CONNECTIONS-----------------
                            1              2              3
                            4
 -----------------------------------------------------------
 IRCHC REACHES    16 TO     5    16 TO    15    16 TO    17
                  16 TO    27
 -----------------------------------------------------------

 -----------------------------------------------------------
 RCHGRP =    17
 IRGNUM =    17
               -----------------CONNECTIONS-----------------
                            1              2              3
                            4
 -----------------------------------------------------------
 IRCHC REACHES    17 TO     6    17 TO    16    17 TO    18
                  17 TO    28
 -----------------------------------------------------------

 -----------------------------------------------------------
 RCHGRP =    18
 IRGNUM =    18
               -----------------CONNECTIONS-----------------
                            1              2              3
                            4
 -----------------------------------------------------------
 IRCHC REACHES    18 TO     7    18 TO    17    18 TO    19
                  18 TO    29
 -----------------------------------------------------------

 -----------------------------------------------------------
 RCHGRP =    19
 IRGNUM =    19
               -----------------CONNECTIONS-----------------
                            1              2              3
                            4
 -----------------------------------------------------------
 IRCHC REACHES    19 TO     8    19 TO    18    19 TO    20
                  19 TO    30
 -----------------------------------------------------------

 -----------------------------------------------------------
 RCHGRP =    20
 IRGNUM =    20
               -----------------CONNECTIONS-----------------
                            1              2              3
                            4
 -----------------------------------------------------------
 IRCHC REACHES    20 TO     9    20 TO    19    20 TO    21
                  20 TO    31
 -----------------------------------------------------------

 -----------------------------------------------------------
 RCHGRP =    21
 IRGNUM =    21
               -----------------CONNECTIONS-----------------
                            1              2              3
                            4
 -----------------------------------------------------------
 IRCHC REACHES    21 TO    10    21 TO    20    21 TO    22
                  21 TO    32
 -----------------------------------------------------------

 -----------------------------------------------------------
 RCHGRP =    22
 IRGNUM =    22
               -----------------CONNECTIONS-----------------
                            1              2              3
 -----------------------------------------------------------
 IRCHC REACHES    22 TO    11    22 TO    21    22 TO    33
 -----------------------------------------------------------

 -----------------------------------------------------------
 RCHGRP =    23
 IRGNUM =    23
               -----------------CONNECTIONS-----------------
                            1              2              3
 -----------------------------------------------------------
 IRCHC REACHES    23 TO    12    23 TO    24    23 TO    34
 -----------------------------------------------------------

 -----------------------------------------------------------
 RCHGRP =    24
 IRGNUM =    24
               -----------------CONNECTIONS-----------------
                            1              2              3
                            4
 -----------------------------------------------------------
 IRCHC REACHES    24 TO    13    24 TO    23    24 TO    25
                  24 TO    35
 -----------------------------------------------------------

 -----------------------------------------------------------
 RCHGRP =    25
 IRGNUM =    25
               -----------------CONNECTIONS-----------------
                            1              2              3
                            4
 -----------------------------------------------------------
 IRCHC REACHES    25 TO    14    25 TO    24    25 TO    26
                  25 TO    36
 -----------------------------------------------------------

 -----------------------------------------------------------
 RCHGRP =    26
 IRGNUM =    26
               -----------------CONNECTIONS-----------------
                            1              2              3
                            4
 -----------------------------------------------------------
 IRCHC REACHES    26 TO    15    26 TO    25    26 TO    27
                  26 TO    37
 -----------------------------------------------------------

 -----------------------------------------------------------
 RCHGRP =    27
 IRGNUM =    27
               -----------------CONNECTIONS-----------------
                            1              2              3
                            4
 -----------------------------------------------------------
 IRCHC REACHES    27 TO    16    27 TO    26    27 TO    28
                  27 TO    38
 -----------------------------------------------------------

 -----------------------------------------------------------
 RCHGRP =    28
 IRGNUM =    28
               -----------------CONNECTIONS-----------------
                            1              2              3
                            4
 -----------------------------------------------------------
 IRCHC REACHES    28 TO    17    28 TO    27    28 TO    29
                  28 TO    39
 -----------------------------------------------------------

 -----------------------------------------------------------
 RCHGRP =    29
 IRGNUM =    29
               -----------------CONNECTIONS-----------------
                            1              2              3
                            4
 -----------------------------------------------------------
 IRCHC REACHES    29 TO    18    29 TO    28    29 TO    30
                  29 TO    40
 -----------------------------------------------------------

 -----------------------------------------------------------
 RCHGRP =    30
 IRGNUM =    30
               -----------------CONNECTIONS-----------------
                            1              2              3
                            4
 -----------------------------------------------------------
 IRCHC REACHES    30 TO    19    30 TO    29    30 TO    31
                  30 TO    41
 -----------------------------------------------------------

 -----------------------------------------------------------
 RCHGRP =    31
 IRGNUM =    31
               -----------------CONNECTIONS-----------------
                            1              2              3
                            4
 -----------------------------------------------------------
 IRCHC REACHES    31 TO    20    31 TO    30    31 TO    32
                  31 TO    42
 -----------------------------------------------------------

 -----------------------------------------------------------
 RCHGRP =    32
 IRGNUM =    32
               -----------------CONNECTIONS-----------------
                            1              2              3
                            4
 -----------------------------------------------------------
 IRCHC REACHES    32 TO    21    32 TO    31    32 TO    33
                  32 TO    43
 -----------------------------------------------------------

 -----------------------------------------------------------
 RCHGRP =    33
 IRGNUM =    33
               -----------------CONNECTIONS-----------------
                            1              2              3
 -----------------------------------------------------------
 IRCHC REACHES    33 TO    22    33 TO    32    33 TO    44
 -----------------------------------------------------------

 -----------------------------------------------------------
 RCHGRP =    34
 IRGNUM =    34
               -----------------CONNECTIONS-----------------
                            1              2              3
 -----------------------------------------------------------
 IRCHC REACHES    34 TO    23    34 TO    35    34 TO    45
 -----------------------------------------------------------

 -----------------------------------------------------------
 RCHGRP =    35
 IRGNUM =    35
               -----------------CONNECTIONS-----------------
                            1              2              3
                            4
 -----------------------------------------------------------
 IRCHC REACHES    35 TO    24    35 TO    34    35 TO    36
                  35 TO    46
 -----------------------------------------------------------

 -----------------------------------------------------------
 RCHGRP =    36
 IRGNUM =    36
               -----------------CONNECTIONS-----------------
                            1              2              3
                            4
 -----------------------------------------------------------
 IRCHC REACHES    36 TO    25    36 TO    35    36 TO    37
                  36 TO    47
 -----------------------------------------------------------

 -----------------------------------------------------------
 RCHGRP =    37
 IRGNUM =    37
               -----------------CONNECTIONS-----------------
                            1              2              3
                            4
 -----------------------------------------------------------
 IRCHC REACHES    37 TO    26    37 TO    36    37 TO    38
                  37 TO    48
 -----------------------------------------------------------

 -----------------------------------------------------------
 RCHGRP =    38
 IRGNUM =    38
               -----------------CONNECTIONS-----------------
                            1              2              3
                            4
 -----------------------------------------------------------
 IRCHC REACHES    38 TO    27    38 TO    37    38 TO    39
                  38 TO    49
 -----------------------------------------------------------

 -----------------------------------------------------------
 RCHGRP =    39
 IRGNUM =    39
               -----------------CONNECTIONS-----------------
                            1              2              3
                            4
 -----------------------------------------------------------
 IRCHC REACHES    39 TO    28    39 TO    38    39 TO    40
                  39 TO    50
 -----------------------------------------------------------

 -----------------------------------------------------------
 RCHGRP =    40
 IRGNUM =    40
               -----------------CONNECTIONS-----------------
                            1              2              3
                            4
 -----------------------------------------------------------
 IRCHC REACHES    40 TO    29    40 TO    39    40 TO    41
                  40 TO    51
 -----------------------------------------------------------

 -----------------------------------------------------------
 RCHGRP =    41
 IRGNUM =    41
               -----------------CONNECTIONS-----------------
                            1              2              3
                            4
 -----------------------------------------------------------
 IRCHC REACHES    41 TO    30    41 TO    40    41 TO    42
                  41 TO    52
 -----------------------------------------------------------

 -----------------------------------------------------------
 RCHGRP =    42
 IRGNUM =    42
               -----------------CONNECTIONS-----------------
                            1              2              3
                            4
 -----------------------------------------------------------
 IRCHC REACHES    42 TO    31    42 TO    41    42 TO    43
                  42 TO    53
 -----------------------------------------------------------

 -----------------------------------------------------------
 RCHGRP =    43
 IRGNUM =    43
               -----------------CONNECTIONS-----------------
                            1              2              3
                            4
 -----------------------------------------------------------
 IRCHC REACHES    43 TO    32    43 TO    42    43 TO    44
                  43 TO    54
 -----------------------------------------------------------

 -----------------------------------------------------------
 RCHGRP =    44
 IRGNUM =    44
               -----------------CONNECTIONS-----------------
                            1              2              3
 -----------------------------------------------------------
 IRCHC REACHES    44 TO    33    44 TO    43    44 TO    55
 -----------------------------------------------------------

 -----------------------------------------------------------
 RCHGRP =    45
 IRGNUM =    45
               -----------------CONNECTIONS-----------------
                            1              2              3
 -----------------------------------------------------------
 IRCHC REACHES    45 TO    34    45 TO    46    45 TO    56
 -----------------------------------------------------------

 -----------------------------------------------------------
 RCHGRP =    46
 IRGNUM =    46
               -----------------CONNECTIONS-----------------
                            1              2              3
                            4
 -----------------------------------------------------------
 IRCHC REACHES    46 TO    35    46 TO    45    46 TO    47
                  46 TO    57
 -----------------------------------------------------------

 -----------------------------------------------------------
 RCHGRP =    47
 IRGNUM =    47
               -----------------CONNECTIONS-----------------
                            1              2              3
                            4
 -----------------------------------------------------------
 IRCHC REACHES    47 TO    36    47 TO    46    47 TO    48
                  47 TO    58
 -----------------------------------------------------------

 -----------------------------------------------------------
 RCHGRP =    48
 IRGNUM =    48
               -----------------CONNECTIONS-----------------
                            1              2              3
                            4
 -----------------------------------------------------------
 IRCHC REACHES    48 TO    37    48 TO    47    48 TO    49
                  48 TO    59
 -----------------------------------------------------------

 -----------------------------------------------------------
 RCHGRP =    49
 IRGNUM =    49
               -----------------CONNECTIONS-----------------
                            1              2              3
                            4
 -----------------------------------------------------------
 IRCHC REACHES    49 TO    38    49 TO    48    49 TO    50
                  49 TO    60
 -----------------------------------------------------------

 -----------------------------------------------------------
 RCHGRP =    50
 IRGNUM =    50
               -----------------CONNECTIONS-----------------
                            1              2              3
                            4
 -----------------------------------------------------------
 IRCHC REACHES    50 TO    39    50 TO    49    50 TO    51
                  50 TO    61
 -----------------------------------------------------------

 -----------------------------------------------------------
 RCHGRP =    51
 IRGNUM =    51
               -----------------CONNECTIONS-----------------
                            1              2              3
                            4
 -----------------------------------------------------------
 IRCHC REACHES    51 TO    40    51 TO    50    51 TO    52
                  51 TO    62
 -----------------------------------------------------------

 -----------------------------------------------------------
 RCHGRP =    52
 IRGNUM =    52
               -----------------CONNECTIONS-----------------
                            1              2              3
                            4
 -----------------------------------------------------------
 IRCHC REACHES    52 TO    41    52 TO    51    52 TO    53
                  52 TO    63
 -----------------------------------------------------------

 -----------------------------------------------------------
 RCHGRP =    53
 IRGNUM =    53
               -----------------CONNECTIONS-----------------
                            1              2              3
                            4
 -----------------------------------------------------------
 IRCHC REACHES    53 TO    42    53 TO    52    53 TO    54
                  53 TO    64
 -----------------------------------------------------------

 -----------------------------------------------------------
 RCHGRP =    54
 IRGNUM =    54
               -----------------CONNECTIONS-----------------
                            1              2              3
                            4
 -----------------------------------------------------------
 IRCHC REACHES    54 TO    43    54 TO    53    54 TO    55
                  54 TO    65
 -----------------------------------------------------------

 -----------------------------------------------------------
 RCHGRP =    55
 IRGNUM =    55
               -----------------CONNECTIONS-----------------
                            1              2              3
 -----------------------------------------------------------
 IRCHC REACHES    55 TO    44    55 TO    54    55 TO    66
 -----------------------------------------------------------

 -----------------------------------------------------------
 RCHGRP =    56
 IRGNUM =    56
               -----------------CONNECTIONS-----------------
                            1              2              3
 -----------------------------------------------------------
 IRCHC REACHES    56 TO    45    56 TO    57    56 TO    67
 -----------------------------------------------------------

 -----------------------------------------------------------
 RCHGRP =    57
 IRGNUM =    57
               -----------------CONNECTIONS-----------------
                            1              2              3
                            4
 -----------------------------------------------------------
 IRCHC REACHES    57 TO    46    57 TO    56    57 TO    58
                  57 TO    68
 -----------------------------------------------------------

 -----------------------------------------------------------
 RCHGRP =    58
 IRGNUM =    58
               -----------------CONNECTIONS-----------------
                            1              2              3
                            4
 -----------------------------------------------------------
 IRCHC REACHES    58 TO    47    58 TO    57    58 TO    59
                  58 TO    69
 -----------------------------------------------------------

 -----------------------------------------------------------
 RCHGRP =    59
 IRGNUM =    59
               -----------------CONNECTIONS-----------------
                            1              2              3
                            4
 -----------------------------------------------------------
 IRCHC REACHES    59 TO    48    59 TO    58    59 TO    60
                  59 TO    70
 -----------------------------------------------------------

 -----------------------------------------------------------
 RCHGRP =    60
 IRGNUM =    60
               -----------------CONNECTIONS-----------------
                            1              2              3
                            4
 -----------------------------------------------------------
 IRCHC REACHES    60 TO    49    60 TO    59    60 TO    61
                  60 TO    71
 -----------------------------------------------------------

 -----------------------------------------------------------
 RCHGRP =    61
 IRGNUM =    61
               -----------------CONNECTIONS-----------------
                            1              2              3
                            4
 -----------------------------------------------------------
 IRCHC REACHES    61 TO    50    61 TO    60    61 TO    62
                  61 TO    72
 -----------------------------------------------------------

 -----------------------------------------------------------
 RCHGRP =    62
 IRGNUM =    62
               -----------------CONNECTIONS-----------------
                            1              2              3
                            4
 -----------------------------------------------------------
 IRCHC REACHES    62 TO    51    62 TO    61    62 TO    63
                  62 TO    73
 -----------------------------------------------------------

 -----------------------------------------------------------
 RCHGRP =    63
 IRGNUM =    63
               -----------------CONNECTIONS-----------------
                            1              2              3
                            4
 -----------------------------------------------------------
 IRCHC REACHES    63 TO    52    63 TO    62    63 TO    64
                  63 TO    74
 -----------------------------------------------------------

 -----------------------------------------------------------
 RCHGRP =    64
 IRGNUM =    64
               -----------------CONNECTIONS-----------------
                            1              2              3
                            4
 -----------------------------------------------------------
 IRCHC REACHES    64 TO    53    64 TO    63    64 TO    65
                  64 TO    75
 -----------------------------------------------------------

 -----------------------------------------------------------
 RCHGRP =    65
 IRGNUM =    65
               -----------------CONNECTIONS-----------------
                            1              2              3
                            4
 -----------------------------------------------------------
 IRCHC REACHES    65 TO    54    65 TO    64    65 TO    66
                  65 TO    76
 -----------------------------------------------------------

 -----------------------------------------------------------
 RCHGRP =    66
 IRGNUM =    66
               -----------------CONNECTIONS-----------------
                            1              2              3
 -----------------------------------------------------------
 IRCHC REACHES    66 TO    55    66 TO    65    66 TO    77
 -----------------------------------------------------------

 -----------------------------------------------------------
 RCHGRP =    67
 IRGNUM =    67
               -----------------CONNECTIONS-----------------
                            1              2              3
 -----------------------------------------------------------
 IRCHC REACHES    67 TO    56    67 TO    68    67 TO    78
 -----------------------------------------------------------

 -----------------------------------------------------------
 RCHGRP =    68
 IRGNUM =    68
               -----------------CONNECTIONS-----------------
                            1              2              3
                            4
 -----------------------------------------------------------
 IRCHC REACHES    68 TO    57    68 TO    67    68 TO    69
                  68 TO    79
 -----------------------------------------------------------

 -----------------------------------------------------------
 RCHGRP =    69
 IRGNUM =    69
               -----------------CONNECTIONS-----------------
                            1              2              3
                            4
 -----------------------------------------------------------
 IRCHC REACHES    69 TO    58    69 TO    68    69 TO    70
                  69 TO    80
 -----------------------------------------------------------

 -----------------------------------------------------------
 RCHGRP =    70
 IRGNUM =    70
               -----------------CONNECTIONS-----------------
                            1              2              3
                            4
 -----------------------------------------------------------
 IRCHC REACHES    70 TO    59    70 TO    69    70 TO    71
                  70 TO    81
 -----------------------------------------------------------

 -----------------------------------------------------------
 RCHGRP =    71
 IRGNUM =    71
               -----------------CONNECTIONS-----------------
                            1              2              3
                            4
 -----------------------------------------------------------
 IRCHC REACHES    71 TO    60    71 TO    70    71 TO    72
                  71 TO    82
 -----------------------------------------------------------

 -----------------------------------------------------------
 RCHGRP =    72
 IRGNUM =    72
               -----------------CONNECTIONS-----------------
                            1              2              3
                            4
 -----------------------------------------------------------
 IRCHC REACHES    72 TO    61    72 TO    71    72 TO    73
                  72 TO    83
 -----------------------------------------------------------

 -----------------------------------------------------------
 RCHGRP =    73
 IRGNUM =    73
               -----------------CONNECTIONS-----------------
                            1              2              3
                            4
 -----------------------------------------------------------
 IRCHC REACHES    73 TO    62    73 TO    72    73 TO    74
                  73 TO    84
 -----------------------------------------------------------

 -----------------------------------------------------------
 RCHGRP =    74
 IRGNUM =    74
               -----------------CONNECTIONS-----------------
                            1              2              3
                            4
 -----------------------------------------------------------
 IRCHC REACHES    74 TO    63    74 TO    73    74 TO    75
                  74 TO    85
 -----------------------------------------------------------

 -----------------------------------------------------------
 RCHGRP =    75
 IRGNUM =    75
               -----------------CONNECTIONS-----------------
                            1              2              3
                            4
 -----------------------------------------------------------
 IRCHC REACHES    75 TO    64    75 TO    74    75 TO    76
                  75 TO    86
 -----------------------------------------------------------

 -----------------------------------------------------------
 RCHGRP =    76
 IRGNUM =    76
               -----------------CONNECTIONS-----------------
                            1              2              3
                            4
 -----------------------------------------------------------
 IRCHC REACHES    76 TO    65    76 TO    75    76 TO    77
                  76 TO    87
 -----------------------------------------------------------

 -----------------------------------------------------------
 RCHGRP =    77
 IRGNUM =    77
               -----------------CONNECTIONS-----------------
                            1              2              3
 -----------------------------------------------------------
 IRCHC REACHES    77 TO    66    77 TO    76    77 TO    88
 -----------------------------------------------------------

 -----------------------------------------------------------
 RCHGRP =    78
 IRGNUM =    78
               -----------------CONNECTIONS-----------------
                            1              2              3
 -----------------------------------------------------------
 IRCHC REACHES    78 TO    67    78 TO    79    78 TO    89
 -----------------------------------------------------------

 -----------------------------------------------------------
 RCHGRP =    79
 IRGNUM =    79
               -----------------CONNECTIONS-----------------
                            1              2              3
                            4
 -----------------------------------------------------------
 IRCHC REACHES    79 TO    68    79 TO    78    79 TO    80
                  79 TO    90
 -----------------------------------------------------------

 -----------------------------------------------------------
 RCHGRP =    80
 IRGNUM =    80
               -----------------CONNECTIONS-----------------
                            1              2              3
                            4
 -----------------------------------------------------------
 IRCHC REACHES    80 TO    69    80 TO    79    80 TO    81
                  80 TO    91
 -----------------------------------------------------------

 -----------------------------------------------------------
 RCHGRP =    81
 IRGNUM =    81
               -----------------CONNECTIONS-----------------
                            1              2              3
                            4
 -----------------------------------------------------------
 IRCHC REACHES    81 TO    70    81 TO    80    81 TO    82
                  81 TO    92
 -----------------------------------------------------------

 -----------------------------------------------------------
 RCHGRP =    82
 IRGNUM =    82
               -----------------CONNECTIONS-----------------
                            1              2              3
                            4
 -----------------------------------------------------------
 IRCHC REACHES    82 TO    71    82 TO    81    82 TO    83
                  82 TO    93
 -----------------------------------------------------------

 -----------------------------------------------------------
 RCHGRP =    83
 IRGNUM =    83
               -----------------CONNECTIONS-----------------
                            1              2              3
                            4
 -----------------------------------------------------------
 IRCHC REACHES    83 TO    72    83 TO    82    83 TO    84
                  83 TO    94
 -----------------------------------------------------------

 -----------------------------------------------------------
 RCHGRP =    84
 IRGNUM =    84
               -----------------CONNECTIONS-----------------
                            1              2              3
                            4
 -----------------------------------------------------------
 IRCHC REACHES    84 TO    73    84 TO    83    84 TO    85
                  84 TO    95
 -----------------------------------------------------------

 -----------------------------------------------------------
 RCHGRP =    85
 IRGNUM =    85
               -----------------CONNECTIONS-----------------
                            1              2              3
                            4
 -----------------------------------------------------------
 IRCHC REACHES    85 TO    74    85 TO    84    85 TO    86
                  85 TO    96
 -----------------------------------------------------------

 -----------------------------------------------------------
 RCHGRP =    86
 IRGNUM =    86
               -----------------CONNECTIONS-----------------
                            1              2              3
                            4
 -----------------------------------------------------------
 IRCHC REACHES    86 TO    75    86 TO    85    86 TO    87
                  86 TO    97
 -----------------------------------------------------------

 -----------------------------------------------------------
 RCHGRP =    87
 IRGNUM =    87
               -----------------CONNECTIONS-----------------
                            1              2              3
                            4
 -----------------------------------------------------------
 IRCHC REACHES    87 TO    76    87 TO    86    87 TO    88
                  87 TO    98
 -----------------------------------------------------------

 -----------------------------------------------------------
 RCHGRP =    88
 IRGNUM =    88
               -----------------CONNECTIONS-----------------
                            1              2              3
 -----------------------------------------------------------
 IRCHC REACHES    88 TO    77    88 TO    87    88 TO    99
 -----------------------------------------------------------

 -----------------------------------------------------------
 RCHGRP =    89
 IRGNUM =    89
               -----------------CONNECTIONS-----------------
                            1              2              3
 -----------------------------------------------------------
 IRCHC REACHES    89 TO    78    89 TO    90    89 TO   100
 -----------------------------------------------------------

 -----------------------------------------------------------
 RCHGRP =    90
 IRGNUM =    90
               -----------------CONNECTIONS-----------------
                            1              2              3
                            4
 -----------------------------------------------------------
 IRCHC REACHES    90 TO    79    90 TO    89    90 TO    91
                  90 TO   101
 -----------------------------------------------------------

 -----------------------------------------------------------
 RCHGRP =    91
 IRGNUM =    91
               -----------------CONNECTIONS-----------------
                            1              2              3
                            4
 -----------------------------------------------------------
 IRCHC REACHES    91 TO    80    91 TO    90    91 TO    92
                  91 TO   102
 -----------------------------------------------------------

 -----------------------------------------------------------
 RCHGRP =    92
 IRGNUM =    92
               -----------------CONNECTIONS-----------------
                            1              2              3
                            4
 -----------------------------------------------------------
 IRCHC REACHES    92 TO    81    92 TO    91    92 TO    93
                  92 TO   103
 -----------------------------------------------------------

 -----------------------------------------------------------
 RCHGRP =    93
 IRGNUM =    93
               -----------------CONNECTIONS-----------------
                            1              2              3
                            4
 -----------------------------------------------------------
 IRCHC REACHES    93 TO    82    93 TO    92    93 TO    94
                  93 TO   104
 -----------------------------------------------------------

 -----------------------------------------------------------
 RCHGRP =    94
 IRGNUM =    94
               -----------------CONNECTIONS-----------------
                            1              2              3
                            4
 -----------------------------------------------------------
 IRCHC REACHES    94 TO    83    94 TO    93    94 TO    95
                  94 TO   105
 -----------------------------------------------------------

 -----------------------------------------------------------
 RCHGRP =    95
 IRGNUM =    95
               -----------------CONNECTIONS-----------------
                            1              2              3
                            4
 -----------------------------------------------------------
 IRCHC REACHES    95 TO    84    95 TO    94    95 TO    96
                  95 TO   106
 -----------------------------------------------------------

 -----------------------------------------------------------
 RCHGRP =    96
 IRGNUM =    96
               -----------------CONNECTIONS-----------------
                            1              2              3
                            4
 -----------------------------------------------------------
 IRCHC REACHES    96 TO    85    96 TO    95    96 TO    97
                  96 TO   107
 -----------------------------------------------------------

 -----------------------------------------------------------
 RCHGRP =    97
 IRGNUM =    97
               -----------------CONNECTIONS-----------------
                            1              2              3
                            4
 -----------------------------------------------------------
 IRCHC REACHES    97 TO    86    97 TO    96    97 TO    98
                  97 TO   108
 -----------------------------------------------------------

 -----------------------------------------------------------
 RCHGRP =    98
 IRGNUM =    98
               -----------------CONNECTIONS-----------------
                            1              2              3
                            4
 -----------------------------------------------------------
 IRCHC REACHES    98 TO    87    98 TO    97    98 TO    99
                  98 TO   109
 -----------------------------------------------------------

 -----------------------------------------------------------
 RCHGRP =    99
 IRGNUM =    99
               -----------------CONNECTIONS-----------------
                            1              2              3
 -----------------------------------------------------------
 IRCHC REACHES    99 TO    88    99 TO    98    99 TO   110
 -----------------------------------------------------------

 -----------------------------------------------------------
 RCHGRP =   100
 IRGNUM =   100
               -----------------CONNECTIONS-----------------
                            1              2              3
 -----------------------------------------------------------
 IRCHC REACHES   100 TO    89   100 TO   101   100 TO   111
 -----------------------------------------------------------

 -----------------------------------------------------------
 RCHGRP =   101
 IRGNUM =   101
               -----------------CONNECTIONS-----------------
                            1              2              3
                            4
 -----------------------------------------------------------
 IRCHC REACHES   101 TO    90   101 TO   100   101 TO   102
                 101 TO   112
 -----------------------------------------------------------

 -----------------------------------------------------------
 RCHGRP =   102
 IRGNUM =   102
               -----------------CONNECTIONS-----------------
                            1              2              3
                            4
 -----------------------------------------------------------
 IRCHC REACHES   102 TO    91   102 TO   101   102 TO   103
                 102 TO   113
 -----------------------------------------------------------

 -----------------------------------------------------------
 RCHGRP =   103
 IRGNUM =   103
               -----------------CONNECTIONS-----------------
                            1              2              3
                            4
 -----------------------------------------------------------
 IRCHC REACHES   103 TO    92   103 TO   102   103 TO   104
                 103 TO   114
 -----------------------------------------------------------

 -----------------------------------------------------------
 RCHGRP =   104
 IRGNUM =   104
               -----------------CONNECTIONS-----------------
                            1              2              3
                            4
 -----------------------------------------------------------
 IRCHC REACHES   104 TO    93   104 TO   103   104 TO   105
                 104 TO   115
 -----------------------------------------------------------

 -----------------------------------------------------------
 RCHGRP =   105
 IRGNUM =   105
               -----------------CONNECTIONS-----------------
                            1              2              3
                            4
 -----------------------------------------------------------
 IRCHC REACHES   105 TO    94   105 TO   104   105 TO   106
                 105 TO   116
 -----------------------------------------------------------

 -----------------------------------------------------------
 RCHGRP =   106
 IRGNUM =   106
               -----------------CONNECTIONS-----------------
                            1              2              3
                            4
 -----------------------------------------------------------
 IRCHC REACHES   106 TO    95   106 TO   105   106 TO   107
                 106 TO   117
 -----------------------------------------------------------

 -----------------------------------------------------------
 RCHGRP =   107
 IRGNUM =   107
               -----------------CONNECTIONS-----------------
                            1              2              3
                            4
 -----------------------------------------------------------
 IRCHC REACHES   107 TO    96   107 TO   106   107 TO   108
                 107 TO   118
 -----------------------------------------------------------

 -----------------------------------------------------------
 RCHGRP =   108
 IRGNUM =   108
               -----------------CONNECTIONS-----------------
                            1              2              3
                            4
 -----------------------------------------------------------
 IRCHC REACHES   108 TO    97   108 TO   107   108 TO   109
                 108 TO   119
 -----------------------------------------------------------

 -----------------------------------------------------------
 RCHGRP =   109
 IRGNUM =   109
               -----------------CONNECTIONS-----------------
                            1              2              3
                            4
 -----------------------------------------------------------
 IRCHC REACHES   109 TO    98   109 TO   108   109 TO   110
                 109 TO   120
 -----------------------------------------------------------

 -----------------------------------------------------------
 RCHGRP =   110
 IRGNUM =   110
               -----------------CONNECTIONS-----------------
                            1              2              3
 -----------------------------------------------------------
 IRCHC REACHES   110 TO    99   110 TO   109   110 TO   121
 -----------------------------------------------------------

 -----------------------------------------------------------
 RCHGRP =   111
 IRGNUM =   111
               -----------------CONNECTIONS-----------------
                            1              2
 -----------------------------------------------------------
 IRCHC REACHES   111 TO   100   111 TO   112
 -----------------------------------------------------------

 -----------------------------------------------------------
 RCHGRP =   112
 IRGNUM =   112
               -----------------CONNECTIONS-----------------
                            1              2              3
 -----------------------------------------------------------
 IRCHC REACHES   112 TO   101   112 TO   111   112 TO   113
 -----------------------------------------------------------

 -----------------------------------------------------------
 RCHGRP =   113
 IRGNUM =   113
               -----------------CONNECTIONS-----------------
                            1              2              3
 -----------------------------------------------------------
 IRCHC REACHES   113 TO   102   113 TO   112   113 TO   114
 -----------------------------------------------------------

 -----------------------------------------------------------
 RCHGRP =   114
 IRGNUM =   114
               -----------------CONNECTIONS-----------------
                            1              2              3
 -----------------------------------------------------------
 IRCHC REACHES   114 TO   103   114 TO   113   114 TO   115
 -----------------------------------------------------------

 -----------------------------------------------------------
 RCHGRP =   115
 IRGNUM =   115
               -----------------CONNECTIONS-----------------
                            1              2              3
 -----------------------------------------------------------
 IRCHC REACHES   115 TO   104   115 TO   114   115 TO   116
 -----------------------------------------------------------

 -----------------------------------------------------------
 RCHGRP =   116
 IRGNUM =   116
               -----------------CONNECTIONS-----------------
                            1              2              3
 -----------------------------------------------------------
 IRCHC REACHES   116 TO   105   116 TO   115   116 TO   117
 -----------------------------------------------------------

 -----------------------------------------------------------
 RCHGRP =   117
 IRGNUM =   117
               -----------------CONNECTIONS-----------------
                            1              2              3
 -----------------------------------------------------------
 IRCHC REACHES   117 TO   106   117 TO   116   117 TO   118
 -----------------------------------------------------------

 -----------------------------------------------------------
 RCHGRP =   118
 IRGNUM =   118
               -----------------CONNECTIONS-----------------
                            1              2              3
 -----------------------------------------------------------
 IRCHC REACHES   118 TO   107   118 TO   117   118 TO   119
 -----------------------------------------------------------

 -----------------------------------------------------------
 RCHGRP =   119
 IRGNUM =   119
               -----------------CONNECTIONS-----------------
                            1              2              3
 -----------------------------------------------------------
 IRCHC REACHES   119 TO   108   119 TO   118   119 TO   120
 -----------------------------------------------------------

 -----------------------------------------------------------
 RCHGRP =   120
 IRGNUM =   120
               -----------------CONNECTIONS-----------------
                            1              2              3
 -----------------------------------------------------------
 IRCHC REACHES   120 TO   109   120 TO   119   120 TO   121
 -----------------------------------------------------------

 -----------------------------------------------------------
 RCHGRP =   121
 IRGNUM =   121
               -----------------CONNECTIONS-----------------
                            1              2
 -----------------------------------------------------------
 IRCHC REACHES   121 TO   110   121 TO   120
 -----------------------------------------------------------
 
 SOLVING FOR HEAD 
 INITIAL HNEW IS AN EXACT SOLUTION.

 OUTPUT CONTROL FOR STRESS PERIOD    1   TIME STEP    1
    SAVE BUDGET

 -------------------------------------------------------------------------------
                             SWR1 OUTPUT PRINT TIMES
                        STRESS PERIOD    1   TIME STEP     1
 --------------- --------------- --------------- --------------- ---------------
      120.00                                                                    
 -------------------------------------------------------------------------------
 
 SOLVING FOR HEAD 
 INITIAL HNEW IS AN EXACT SOLUTION.

 NO OUTPUT CONTROL FOR STRESS PERIOD    1   TIME STEP    2

 -------------------------------------------------------------------------------
                             SWR1 OUTPUT PRINT TIMES
                        STRESS PERIOD    1   TIME STEP     2
 --------------- --------------- --------------- --------------- ---------------
      240.00                                                                    
 -------------------------------------------------------------------------------
 
 SOLVING FOR HEAD 
 INITIAL HNEW IS AN EXACT SOLUTION.

 NO OUTPUT CONTROL FOR STRESS PERIOD    1   TIME STEP    3

 -------------------------------------------------------------------------------
                             SWR1 OUTPUT PRINT TIMES
                        STRESS PERIOD    1   TIME STEP     3
 --------------- --------------- --------------- --------------- ---------------
      360.00                                                                    
 -------------------------------------------------------------------------------
 
 SOLVING FOR HEAD 
 INITIAL HNEW IS AN EXACT SOLUTION.

 NO OUTPUT CONTROL FOR STRESS PERIOD    1   TIME STEP    4

 -------------------------------------------------------------------------------
                             SWR1 OUTPUT PRINT TIMES
                        STRESS PERIOD    1   TIME STEP     4
 --------------- --------------- --------------- --------------- ---------------
      480.00                                                                    
 -------------------------------------------------------------------------------
 
 SOLVING FOR HEAD 
 INITIAL HNEW IS AN EXACT SOLUTION.

 NO OUTPUT CONTROL FOR STRESS PERIOD    1   TIME STEP    5

 -------------------------------------------------------------------------------
                             SWR1 OUTPUT PRINT TIMES
                        STRESS PERIOD    1   TIME STEP     5
 --------------- --------------- --------------- --------------- ---------------
      600.00                                                                    
 -------------------------------------------------------------------------------
 
 SOLVING FOR HEAD 
 INITIAL HNEW IS AN EXACT SOLUTION.

 NO OUTPUT CONTROL FOR STRESS PERIOD    1   TIME STEP    6

 -------------------------------------------------------------------------------
                             SWR1 OUTPUT PRINT TIMES
                        STRESS PERIOD    1   TIME STEP     6
 --------------- --------------- --------------- --------------- ---------------
      720.00                                                                    
 -------------------------------------------------------------------------------
 
 SOLVING FOR HEAD 
 INITIAL HNEW IS AN EXACT SOLUTION.

 NO OUTPUT CONTROL FOR STRESS PERIOD    1   TIME STEP    7

 -------------------------------------------------------------------------------
                             SWR1 OUTPUT PRINT TIMES
                        STRESS PERIOD    1   TIME STEP     7
 --------------- --------------- --------------- --------------- ---------------
      840.00                                                                    
 -------------------------------------------------------------------------------
 
 SOLVING FOR HEAD 
 INITIAL HNEW IS AN EXACT SOLUTION.

 NO OUTPUT CONTROL FOR STRESS PERIOD    1   TIME STEP    8

 -------------------------------------------------------------------------------
                             SWR1 OUTPUT PRINT TIMES
                        STRESS PERIOD    1   TIME STEP     8
 --------------- --------------- --------------- --------------- ---------------
      960.00                                                                    
 -------------------------------------------------------------------------------
 
 SOLVING FOR HEAD 
 INITIAL HNEW IS AN EXACT SOLUTION.

 NO OUTPUT CONTROL FOR STRESS PERIOD    1   TIME STEP    9

 -------------------------------------------------------------------------------
                             SWR1 OUTPUT PRINT TIMES
                        STRESS PERIOD    1   TIME STEP     9
 --------------- --------------- --------------- --------------- ---------------
      1080.0                                                                    
 -------------------------------------------------------------------------------
 
 SOLVING FOR HEAD 
 INITIAL HNEW IS AN EXACT SOLUTION.

 NO OUTPUT CONTROL FOR STRESS PERIOD    1   TIME STEP   10

 -------------------------------------------------------------------------------
                             SWR1 OUTPUT PRINT TIMES
                        STRESS PERIOD    1   TIME STEP    10
 --------------- --------------- --------------- --------------- ---------------
      1200.0                                                                    
 -------------------------------------------------------------------------------
 
 SOLVING FOR HEAD 
 INITIAL HNEW IS AN EXACT SOLUTION.

 NO OUTPUT CONTROL FOR STRESS PERIOD    1   TIME STEP   11

 -------------------------------------------------------------------------------
                             SWR1 OUTPUT PRINT TIMES
                        STRESS PERIOD    1   TIME STEP    11
 --------------- --------------- --------------- --------------- ---------------
      1320.0                                                                    
 -------------------------------------------------------------------------------
 
 SOLVING FOR HEAD 
 INITIAL HNEW IS AN EXACT SOLUTION.

 NO OUTPUT CONTROL FOR STRESS PERIOD    1   TIME STEP   12

 -------------------------------------------------------------------------------
                             SWR1 OUTPUT PRINT TIMES
                        STRESS PERIOD    1   TIME STEP    12
 --------------- --------------- --------------- --------------- ---------------
      1440.0                                                                    
 -------------------------------------------------------------------------------
 
 SOLVING FOR HEAD 
 INITIAL HNEW IS AN EXACT SOLUTION.

 NO OUTPUT CONTROL FOR STRESS PERIOD    1   TIME STEP   13

 -------------------------------------------------------------------------------
                             SWR1 OUTPUT PRINT TIMES
                        STRESS PERIOD    1   TIME STEP    13
 --------------- --------------- --------------- --------------- ---------------
      1560.0                                                                    
 -------------------------------------------------------------------------------
 
 SOLVING FOR HEAD 
 INITIAL HNEW IS AN EXACT SOLUTION.

 NO OUTPUT CONTROL FOR STRESS PERIOD    1   TIME STEP   14

 -------------------------------------------------------------------------------
                             SWR1 OUTPUT PRINT TIMES
                        STRESS PERIOD    1   TIME STEP    14
 --------------- --------------- --------------- --------------- ---------------
      1680.0                                                                    
 -------------------------------------------------------------------------------
 
 SOLVING FOR HEAD 
 INITIAL HNEW IS AN EXACT SOLUTION.

 NO OUTPUT CONTROL FOR STRESS PERIOD    1   TIME STEP   15

 -------------------------------------------------------------------------------
                             SWR1 OUTPUT PRINT TIMES
                        STRESS PERIOD    1   TIME STEP    15
 --------------- --------------- --------------- --------------- ---------------
      1800.0                                                                    
 -------------------------------------------------------------------------------
 
 SOLVING FOR HEAD 
 INITIAL HNEW IS AN EXACT SOLUTION.

 NO OUTPUT CONTROL FOR STRESS PERIOD    1   TIME STEP   16

 -------------------------------------------------------------------------------
                             SWR1 OUTPUT PRINT TIMES
                        STRESS PERIOD    1   TIME STEP    16
 --------------- --------------- --------------- --------------- ---------------
      1920.0                                                                    
 -------------------------------------------------------------------------------
 
 SOLVING FOR HEAD 
 INITIAL HNEW IS AN EXACT SOLUTION.

 NO OUTPUT CONTROL FOR STRESS PERIOD    1   TIME STEP   17

 -------------------------------------------------------------------------------
                             SWR1 OUTPUT PRINT TIMES
                        STRESS PERIOD    1   TIME STEP    17
 --------------- --------------- --------------- --------------- ---------------
      2040.0                                                                    
 -------------------------------------------------------------------------------
 
 SOLVING FOR HEAD 
 INITIAL HNEW IS AN EXACT SOLUTION.

 NO OUTPUT CONTROL FOR STRESS PERIOD    1   TIME STEP   18

 -------------------------------------------------------------------------------
                             SWR1 OUTPUT PRINT TIMES
                        STRESS PERIOD    1   TIME STEP    18
 --------------- --------------- --------------- --------------- ---------------
      2160.0                                                                    
 -------------------------------------------------------------------------------
 
 SOLVING FOR HEAD 
 INITIAL HNEW IS AN EXACT SOLUTION.

 NO OUTPUT CONTROL FOR STRESS PERIOD    1   TIME STEP   19

 -------------------------------------------------------------------------------
                             SWR1 OUTPUT PRINT TIMES
                        STRESS PERIOD    1   TIME STEP    19
 --------------- --------------- --------------- --------------- ---------------
      2280.0                                                                    
 -------------------------------------------------------------------------------
 
 SOLVING FOR HEAD 
 INITIAL HNEW IS AN EXACT SOLUTION.

 NO OUTPUT CONTROL FOR STRESS PERIOD    1   TIME STEP   20

 -------------------------------------------------------------------------------
                             SWR1 OUTPUT PRINT TIMES
                        STRESS PERIOD    1   TIME STEP    20
 --------------- --------------- --------------- --------------- ---------------
      2400.0                                                                    
 -------------------------------------------------------------------------------
 
 SOLVING FOR HEAD 
 INITIAL HNEW IS AN EXACT SOLUTION.

 NO OUTPUT CONTROL FOR STRESS PERIOD    1   TIME STEP   21

 -------------------------------------------------------------------------------
                             SWR1 OUTPUT PRINT TIMES
                        STRESS PERIOD    1   TIME STEP    21
 --------------- --------------- --------------- --------------- ---------------
      2520.0                                                                    
 -------------------------------------------------------------------------------
 
 SOLVING FOR HEAD 
 INITIAL HNEW IS AN EXACT SOLUTION.

 NO OUTPUT CONTROL FOR STRESS PERIOD    1   TIME STEP   22

 -------------------------------------------------------------------------------
                             SWR1 OUTPUT PRINT TIMES
                        STRESS PERIOD    1   TIME STEP    22
 --------------- --------------- --------------- --------------- ---------------
      2640.0                                                                    
 -------------------------------------------------------------------------------
 
 SOLVING FOR HEAD 
 INITIAL HNEW IS AN EXACT SOLUTION.

 NO OUTPUT CONTROL FOR STRESS PERIOD    1   TIME STEP   23

 -------------------------------------------------------------------------------
                             SWR1 OUTPUT PRINT TIMES
                        STRESS PERIOD    1   TIME STEP    23
 --------------- --------------- --------------- --------------- ---------------
      2760.0                                                                    
 -------------------------------------------------------------------------------
 
 SOLVING FOR HEAD 
 INITIAL HNEW IS AN EXACT SOLUTION.

 NO OUTPUT CONTROL FOR STRESS PERIOD    1   TIME STEP   24

 -------------------------------------------------------------------------------
                             SWR1 OUTPUT PRINT TIMES
                        STRESS PERIOD    1   TIME STEP    24
 --------------- --------------- --------------- --------------- ---------------
      2880.0                                                                    
 -------------------------------------------------------------------------------
 
 SOLVING FOR HEAD 
 INITIAL HNEW IS AN EXACT SOLUTION.

 NO OUTPUT CONTROL FOR STRESS PERIOD    1   TIME STEP   25

 -------------------------------------------------------------------------------
                             SWR1 OUTPUT PRINT TIMES
                        STRESS PERIOD    1   TIME STEP    25
 --------------- --------------- --------------- --------------- ---------------
      3000.0                                                                    
 -------------------------------------------------------------------------------
 
 SOLVING FOR HEAD 
 INITIAL HNEW IS AN EXACT SOLUTION.

 NO OUTPUT CONTROL FOR STRESS PERIOD    1   TIME STEP   26

 -------------------------------------------------------------------------------
                             SWR1 OUTPUT PRINT TIMES
                        STRESS PERIOD    1   TIME STEP    26
 --------------- --------------- --------------- --------------- ---------------
      3120.0                                                                    
 -------------------------------------------------------------------------------
 
 SOLVING FOR HEAD 
 INITIAL HNEW IS AN EXACT SOLUTION.

 NO OUTPUT CONTROL FOR STRESS PERIOD    1   TIME STEP   27

 -------------------------------------------------------------------------------
                             SWR1 OUTPUT PRINT TIMES
                        STRESS PERIOD    1   TIME STEP    27
 --------------- --------------- --------------- --------------- ---------------
      3240.0                                                                    
 -------------------------------------------------------------------------------
 
 SOLVING FOR HEAD 
 INITIAL HNEW IS AN EXACT SOLUTION.

 NO OUTPUT CONTROL FOR STRESS PERIOD    1   TIME STEP   28

 -------------------------------------------------------------------------------
                             SWR1 OUTPUT PRINT TIMES
                        STRESS PERIOD    1   TIME STEP    28
 --------------- --------------- --------------- --------------- ---------------
      3360.0                                                                    
 -------------------------------------------------------------------------------
 
 SOLVING FOR HEAD 
 INITIAL HNEW IS AN EXACT SOLUTION.

 NO OUTPUT CONTROL FOR STRESS PERIOD    1   TIME STEP   29

 -------------------------------------------------------------------------------
                             SWR1 OUTPUT PRINT TIMES
                        STRESS PERIOD    1   TIME STEP    29
 --------------- --------------- --------------- --------------- ---------------
      3480.0                                                                    
 -------------------------------------------------------------------------------
 
 SOLVING FOR HEAD 
 INITIAL HNEW IS AN EXACT SOLUTION.

 NO OUTPUT CONTROL FOR STRESS PERIOD    1   TIME STEP   30

 -------------------------------------------------------------------------------
                             SWR1 OUTPUT PRINT TIMES
                        STRESS PERIOD    1   TIME STEP    30
 --------------- --------------- --------------- --------------- ---------------
      3600.0                                                                    
 -------------------------------------------------------------------------------


                    VOLUMETRIC SURFACE WATER BUDGET FOR ENTIRE MODEL
                    AT END OF TIME STEP    30 IN STRESS PERIOD    1
  -----------------------------------------------------------------------------------

        CUMULATIVE VOLUMES      L**3       RATES FOR THIS TIME STEP      L**3/T
        ------------------                 ------------------------

              IN:                                      IN:
              ---                                      ---
          LATERAL FLOW  =           0.1971         LATERAL FLOW  =       5.4743E-05
         UNSAT. RUNOFF  =           0.0000        UNSAT. RUNOFF  =           0.0000
              RAINFALL  =           0.2866             RAINFALL  =       7.9624E-05
           EVAPORATION  =           0.0000          EVAPORATION  =           0.0000
         REACH-AQ FLOW  =           0.0000        REACH-AQ FLOW  =           0.0000
         EXTERNAL FLOW  =           0.0000        EXTERNAL FLOW  =           0.0000
         BOUNDARY FLOW  =           0.0000        BOUNDARY FLOW  =           0.0000
         CONSTANT FLOW  =           0.0000        CONSTANT FLOW  =           0.0000
               STORAGE  =        2148.5581              STORAGE  =           0.5968

               TOTAL IN =        2149.0417              TOTAL IN =           0.5970

             OUT:                                     OUT:
             ----                                     ----
          LATERAL FLOW  =           0.0000         LATERAL FLOW  =           0.0000
         UNSAT. RUNOFF  =           0.0000        UNSAT. RUNOFF  =           0.0000
              RAINFALL  =           0.0000             RAINFALL  =           0.0000
           EVAPORATION  =           0.0000          EVAPORATION  =           0.0000
         REACH-AQ FLOW  =           0.0000        REACH-AQ FLOW  =           0.0000
         EXTERNAL FLOW  =           0.0000        EXTERNAL FLOW  =           0.0000
         BOUNDARY FLOW  =           0.0000        BOUNDARY FLOW  =           0.0000
         CONSTANT FLOW  =        2148.7563        CONSTANT FLOW  =           0.5969
               STORAGE  =           0.2857              STORAGE  =       7.5726E-05

              TOTAL OUT =        2149.0420             TOTAL OUT =           0.5970

               IN - OUT =      -2.4414E-04              IN - OUT =       1.1921E-07

    PERCENT DISCREPANCY =           0.00     PERCENT DISCREPANCY =           0.00

1
  VOLUMETRIC BUDGET FOR ENTIRE MODEL AT END OF TIME STEP   30, STRESS PERIOD   1
  ------------------------------------------------------------------------------

     CUMULATIVE VOLUMES      L**3       RATES FOR THIS TIME STEP      L**3/T
     ------------------                 ------------------------

           IN:                                      IN:
           ---                                      ---
             STORAGE =           0.0000               STORAGE =           0.0000
       CONSTANT HEAD =           0.0000         CONSTANT HEAD =           0.0000
         SWR LEAKAGE =           0.0000           SWR LEAKAGE =           0.0000
            SWR GWET =           0.0000              SWR GWET =           0.0000

            TOTAL IN =           0.0000              TOTAL IN =           0.0000

          OUT:                                     OUT:
          ----                                     ----
             STORAGE =           0.0000               STORAGE =           0.0000
       CONSTANT HEAD =           0.0000         CONSTANT HEAD =           0.0000
         SWR LEAKAGE =           0.0000           SWR LEAKAGE =           0.0000
            SWR GWET =           0.0000              SWR GWET =           0.0000

           TOTAL OUT =           0.0000             TOTAL OUT =           0.0000

            IN - OUT =           0.0000              IN - OUT =           0.0000

 PERCENT DISCREPANCY =           0.00     PERCENT DISCREPANCY =           0.00






         TIME SUMMARY AT END OF TIME STEP   30 IN STRESS PERIOD    1
                    SECONDS     MINUTES      HOURS       DAYS        YEARS
                    -----------------------------------------------------------
   TIME STEP LENGTH  120.00      2.0000     3.33333E-02 1.38889E-03 3.80257E-06
 STRESS PERIOD TIME  3600.0      60.000      1.0000     4.16667E-02 1.14077E-04
         TOTAL TIME  3600.0      60.000      1.0000     4.16667E-02 1.14077E-04
1
1
                            STRESS PERIOD NO.    2, LENGTH =   3600.000    
                            -----------------------------------------------

                              NUMBER OF TIME STEPS =    30

                               MULTIPLIER FOR DELT =     1.000

                            INITIAL TIME STEP SIZE =   120.0000    

 ...READING SWR1 PROCESS DATASET 5

 ...READING SWR1 PROCESS DATASET 7B



                   2D RAINFALL DATA
 READING ON UNIT   61 WITH FORMAT: (11E12.4)           

           1          2          3          4          5          6          7          8          9         10         11
 .........................................................................................................................
   1    0.00       0.00       0.00       0.00       0.00       0.00       0.00       0.00       0.00       0.00       0.00    
   2    0.00       0.00       0.00       0.00       0.00       0.00       0.00       0.00       0.00       0.00       0.00    
   3    0.00       0.00       0.00       0.00       0.00       0.00       0.00       0.00       0.00       0.00       0.00    
   4    0.00       0.00       0.00       0.00      1.533E-10  1.533E-10  1.533E-10   0.00       0.00       0.00       0.00    
   5    0.00       0.00       0.00       0.00      1.533E-10  1.533E-10  1.533E-10   0.00       0.00       0.00       0.00    
   6    0.00       0.00       0.00      1.533E-10  1.533E-10  1.533E-10  1.533E-10   0.00       0.00       0.00       0.00    
   7    0.00       0.00       0.00       0.00      1.533E-10  1.533E-10  1.533E-10   0.00       0.00       0.00       0.00    
   8    0.00       0.00       0.00       0.00      1.533E-10  1.533E-10  1.533E-10   0.00       0.00       0.00       0.00    
   9    0.00       0.00       0.00       0.00       0.00       0.00       0.00       0.00       0.00       0.00       0.00    
  10    0.00       0.00       0.00       0.00       0.00       0.00       0.00       0.00       0.00       0.00       0.00    
  11    0.00       0.00       0.00       0.00       0.00       0.00       0.00       0.00       0.00       0.00       0.00    

 ...READING SWR1 PROCESS DATASET 9B



             2D LATERAL INFLOW DATA
 READING ON UNIT   61 WITH FORMAT: (11E12.4)           

           1          2          3          4          5          6          7          8          9         10         11
 .........................................................................................................................
   1   3.834E-05   0.00       0.00       0.00       0.00       0.00       0.00       0.00       0.00       0.00       0.00    
   2   3.834E-05   0.00       0.00       0.00       0.00       0.00       0.00       0.00       0.00       0.00       0.00    
   3   3.834E-05   0.00       0.00       0.00       0.00       0.00       0.00       0.00       0.00       0.00       0.00    
   4   3.834E-05   0.00       0.00       0.00       0.00       0.00       0.00       0.00       0.00       0.00       0.00    
   5   3.834E-05   0.00       0.00       0.00       0.00       0.00       0.00       0.00       0.00       0.00       0.00    
   6   3.834E-05   0.00       0.00       0.00       0.00       0.00       0.00       0.00       0.00       0.00       0.00    
   7   3.834E-05   0.00       0.00       0.00       0.00       0.00       0.00       0.00       0.00       0.00       0.00    
   8   3.834E-05   0.00       0.00       0.00       0.00       0.00       0.00       0.00       0.00       0.00       0.00    
   9   3.834E-05   0.00       0.00       0.00       0.00       0.00       0.00       0.00       0.00       0.00       0.00    
  10   3.834E-05   0.00       0.00       0.00       0.00       0.00       0.00       0.00       0.00       0.00       0.00    
  11   3.834E-05   0.00       0.00       0.00       0.00       0.00       0.00       0.00       0.00       0.00       0.00    
 
 SOLVING FOR HEAD 
 INITIAL HNEW IS AN EXACT SOLUTION.

 OUTPUT CONTROL FOR STRESS PERIOD    2   TIME STEP    1
    SAVE BUDGET

 -------------------------------------------------------------------------------
                             SWR1 OUTPUT PRINT TIMES
                        STRESS PERIOD    2   TIME STEP     1
 --------------- --------------- --------------- --------------- ---------------
      3720.0                                                                    
 -------------------------------------------------------------------------------
 
 SOLVING FOR HEAD 
 INITIAL HNEW IS AN EXACT SOLUTION.

 NO OUTPUT CONTROL FOR STRESS PERIOD    2   TIME STEP    2

 -------------------------------------------------------------------------------
                             SWR1 OUTPUT PRINT TIMES
                        STRESS PERIOD    2   TIME STEP     2
 --------------- --------------- --------------- --------------- ---------------
      3840.0                                                                    
 -------------------------------------------------------------------------------
 
 SOLVING FOR HEAD 
 INITIAL HNEW IS AN EXACT SOLUTION.

 NO OUTPUT CONTROL FOR STRESS PERIOD    2   TIME STEP    3

 -------------------------------------------------------------------------------
                             SWR1 OUTPUT PRINT TIMES
                        STRESS PERIOD    2   TIME STEP     3
 --------------- --------------- --------------- --------------- ---------------
      3960.0                                                                    
 -------------------------------------------------------------------------------
 
 SOLVING FOR HEAD 
 INITIAL HNEW IS AN EXACT SOLUTION.

 NO OUTPUT CONTROL FOR STRESS PERIOD    2   TIME STEP    4

 -------------------------------------------------------------------------------
                             SWR1 OUTPUT PRINT TIMES
                        STRESS PERIOD    2   TIME STEP     4
 --------------- --------------- --------------- --------------- ---------------
      4080.0                                                                    
 -------------------------------------------------------------------------------
 
 SOLVING FOR HEAD 
 INITIAL HNEW IS AN EXACT SOLUTION.

 NO OUTPUT CONTROL FOR STRESS PERIOD    2   TIME STEP    5

 -------------------------------------------------------------------------------
                             SWR1 OUTPUT PRINT TIMES
                        STRESS PERIOD    2   TIME STEP     5
 --------------- --------------- --------------- --------------- ---------------
      4200.0                                                                    
 -------------------------------------------------------------------------------
 
 SOLVING FOR HEAD 
 INITIAL HNEW IS AN EXACT SOLUTION.

 NO OUTPUT CONTROL FOR STRESS PERIOD    2   TIME STEP    6

 -------------------------------------------------------------------------------
                             SWR1 OUTPUT PRINT TIMES
                        STRESS PERIOD    2   TIME STEP     6
 --------------- --------------- --------------- --------------- ---------------
      4320.0                                                                    
 -------------------------------------------------------------------------------
 
 SOLVING FOR HEAD 
 INITIAL HNEW IS AN EXACT SOLUTION.

 NO OUTPUT CONTROL FOR STRESS PERIOD    2   TIME STEP    7

 -------------------------------------------------------------------------------
                             SWR1 OUTPUT PRINT TIMES
                        STRESS PERIOD    2   TIME STEP     7
 --------------- --------------- --------------- --------------- ---------------
      4440.0                                                                    
 -------------------------------------------------------------------------------
 
 SOLVING FOR HEAD 
 INITIAL HNEW IS AN EXACT SOLUTION.

 NO OUTPUT CONTROL FOR STRESS PERIOD    2   TIME STEP    8

 -------------------------------------------------------------------------------
                             SWR1 OUTPUT PRINT TIMES
                        STRESS PERIOD    2   TIME STEP     8
 --------------- --------------- --------------- --------------- ---------------
      4560.0                                                                    
 -------------------------------------------------------------------------------
 
 SOLVING FOR HEAD 
 INITIAL HNEW IS AN EXACT SOLUTION.

 NO OUTPUT CONTROL FOR STRESS PERIOD    2   TIME STEP    9

 -------------------------------------------------------------------------------
                             SWR1 OUTPUT PRINT TIMES
                        STRESS PERIOD    2   TIME STEP     9
 --------------- --------------- --------------- --------------- ---------------
      4680.0                                                                    
 -------------------------------------------------------------------------------
 
 SOLVING FOR HEAD 
 INITIAL HNEW IS AN EXACT SOLUTION.

 NO OUTPUT CONTROL FOR STRESS PERIOD    2   TIME STEP   10

 -------------------------------------------------------------------------------
                             SWR1 OUTPUT PRINT TIMES
                        STRESS PERIOD    2   TIME STEP    10
 --------------- --------------- --------------- --------------- ---------------
      4800.0                                                                    
 -------------------------------------------------------------------------------
 
 SOLVING FOR HEAD 
 INITIAL HNEW IS AN EXACT SOLUTION.

 NO OUTPUT CONTROL FOR STRESS PERIOD    2   TIME STEP   11

 -------------------------------------------------------------------------------
                             SWR1 OUTPUT PRINT TIMES
                        STRESS PERIOD    2   TIME STEP    11
 --------------- --------------- --------------- --------------- ---------------
      4920.0                                                                    
 -------------------------------------------------------------------------------
 
 SOLVING FOR HEAD 
 INITIAL HNEW IS AN EXACT SOLUTION.

 NO OUTPUT CONTROL FOR STRESS PERIOD    2   TIME STEP   12

 -------------------------------------------------------------------------------
                             SWR1 OUTPUT PRINT TIMES
                        STRESS PERIOD    2   TIME STEP    12
 --------------- --------------- --------------- --------------- ---------------
      5040.0                                                                    
 -------------------------------------------------------------------------------
 
 SOLVING FOR HEAD 
 INITIAL HNEW IS AN EXACT SOLUTION.

 NO OUTPUT CONTROL FOR STRESS PERIOD    2   TIME STEP   13

 -------------------------------------------------------------------------------
                             SWR1 OUTPUT PRINT TIMES
                        STRESS PERIOD    2   TIME STEP    13
 --------------- --------------- --------------- --------------- ---------------
      5160.0                                                                    
 -------------------------------------------------------------------------------
 
 SOLVING FOR HEAD 
 INITIAL HNEW IS AN EXACT SOLUTION.

 NO OUTPUT CONTROL FOR STRESS PERIOD    2   TIME STEP   14

 -------------------------------------------------------------------------------
                             SWR1 OUTPUT PRINT TIMES
                        STRESS PERIOD    2   TIME STEP    14
 --------------- --------------- --------------- --------------- ---------------
      5280.0                                                                    
 -------------------------------------------------------------------------------
 
 SOLVING FOR HEAD 
 INITIAL HNEW IS AN EXACT SOLUTION.

 NO OUTPUT CONTROL FOR STRESS PERIOD    2   TIME STEP   15

 -------------------------------------------------------------------------------
                             SWR1 OUTPUT PRINT TIMES
                        STRESS PERIOD    2   TIME STEP    15
 --------------- --------------- --------------- --------------- ---------------
      5400.0                                                                    
 -------------------------------------------------------------------------------
 
 SOLVING FOR HEAD 
 INITIAL HNEW IS AN EXACT SOLUTION.

 NO OUTPUT CONTROL FOR STRESS PERIOD    2   TIME STEP   16

 -------------------------------------------------------------------------------
                             SWR1 OUTPUT PRINT TIMES
                        STRESS PERIOD    2   TIME STEP    16
 --------------- --------------- --------------- --------------- ---------------
      5520.0                                                                    
 -------------------------------------------------------------------------------
 
 SOLVING FOR HEAD 
 INITIAL HNEW IS AN EXACT SOLUTION.

 NO OUTPUT CONTROL FOR STRESS PERIOD    2   TIME STEP   17

 -------------------------------------------------------------------------------
                             SWR1 OUTPUT PRINT TIMES
                        STRESS PERIOD    2   TIME STEP    17
 --------------- --------------- --------------- --------------- ---------------
      5640.0                                                                    
 -------------------------------------------------------------------------------
 
 SOLVING FOR HEAD 
 INITIAL HNEW IS AN EXACT SOLUTION.

 NO OUTPUT CONTROL FOR STRESS PERIOD    2   TIME STEP   18

 -------------------------------------------------------------------------------
                             SWR1 OUTPUT PRINT TIMES
                        STRESS PERIOD    2   TIME STEP    18
 --------------- --------------- --------------- --------------- ---------------
      5760.0                                                                    
 -------------------------------------------------------------------------------
 
 SOLVING FOR HEAD 
 INITIAL HNEW IS AN EXACT SOLUTION.

 NO OUTPUT CONTROL FOR STRESS PERIOD    2   TIME STEP   19

 -------------------------------------------------------------------------------
                             SWR1 OUTPUT PRINT TIMES
                        STRESS PERIOD    2   TIME STEP    19
 --------------- --------------- --------------- --------------- ---------------
      5880.0                                                                    
 -------------------------------------------------------------------------------
 
 SOLVING FOR HEAD 
 INITIAL HNEW IS AN EXACT SOLUTION.

 NO OUTPUT CONTROL FOR STRESS PERIOD    2   TIME STEP   20

 -------------------------------------------------------------------------------
                             SWR1 OUTPUT PRINT TIMES
                        STRESS PERIOD    2   TIME STEP    20
 --------------- --------------- --------------- --------------- ---------------
      6000.0                                                                    
 -------------------------------------------------------------------------------
 
 SOLVING FOR HEAD 
 INITIAL HNEW IS AN EXACT SOLUTION.

 NO OUTPUT CONTROL FOR STRESS PERIOD    2   TIME STEP   21

 -------------------------------------------------------------------------------
                             SWR1 OUTPUT PRINT TIMES
                        STRESS PERIOD    2   TIME STEP    21
 --------------- --------------- --------------- --------------- ---------------
      6120.0                                                                    
 -------------------------------------------------------------------------------
 
 SOLVING FOR HEAD 
 INITIAL HNEW IS AN EXACT SOLUTION.

 NO OUTPUT CONTROL FOR STRESS PERIOD    2   TIME STEP   22

 -------------------------------------------------------------------------------
                             SWR1 OUTPUT PRINT TIMES
                        STRESS PERIOD    2   TIME STEP    22
 --------------- --------------- --------------- --------------- ---------------
      6240.0                                                                    
 -------------------------------------------------------------------------------
 
 SOLVING FOR HEAD 
 INITIAL HNEW IS AN EXACT SOLUTION.

 NO OUTPUT CONTROL FOR STRESS PERIOD    2   TIME STEP   23

 -------------------------------------------------------------------------------
                             SWR1 OUTPUT PRINT TIMES
                        STRESS PERIOD    2   TIME STEP    23
 --------------- --------------- --------------- --------------- ---------------
      6360.0                                                                    
 -------------------------------------------------------------------------------
 
 SOLVING FOR HEAD 
 INITIAL HNEW IS AN EXACT SOLUTION.

 NO OUTPUT CONTROL FOR STRESS PERIOD    2   TIME STEP   24

 -------------------------------------------------------------------------------
                             SWR1 OUTPUT PRINT TIMES
                        STRESS PERIOD    2   TIME STEP    24
 --------------- --------------- --------------- --------------- ---------------
      6480.0                                                                    
 -------------------------------------------------------------------------------
 
 SOLVING FOR HEAD 
 INITIAL HNEW IS AN EXACT SOLUTION.

 NO OUTPUT CONTROL FOR STRESS PERIOD    2   TIME STEP   25

 -------------------------------------------------------------------------------
                             SWR1 OUTPUT PRINT TIMES
                        STRESS PERIOD    2   TIME STEP    25
 --------------- --------------- --------------- --------------- ---------------
      6600.0                                                                    
 -------------------------------------------------------------------------------
 
 SOLVING FOR HEAD 
 INITIAL HNEW IS AN EXACT SOLUTION.

 NO OUTPUT CONTROL FOR STRESS PERIOD    2   TIME STEP   26

 -------------------------------------------------------------------------------
                             SWR1 OUTPUT PRINT TIMES
                        STRESS PERIOD    2   TIME STEP    26
 --------------- --------------- --------------- --------------- ---------------
      6720.0                                                                    
 -------------------------------------------------------------------------------
 
 SOLVING FOR HEAD 
 INITIAL HNEW IS AN EXACT SOLUTION.

 NO OUTPUT CONTROL FOR STRESS PERIOD    2   TIME STEP   27

 -------------------------------------------------------------------------------
                             SWR1 OUTPUT PRINT TIMES
                        STRESS PERIOD    2   TIME STEP    27
 --------------- --------------- --------------- --------------- ---------------
      6840.0                                                                    
 -------------------------------------------------------------------------------
 
 SOLVING FOR HEAD 
 INITIAL HNEW IS AN EXACT SOLUTION.

 NO OUTPUT CONTROL FOR STRESS PERIOD    2   TIME STEP   28

 -------------------------------------------------------------------------------
                             SWR1 OUTPUT PRINT TIMES
                        STRESS PERIOD    2   TIME STEP    28
 --------------- --------------- --------------- --------------- ---------------
      6960.0                                                                    
 -------------------------------------------------------------------------------
 
 SOLVING FOR HEAD 
 INITIAL HNEW IS AN EXACT SOLUTION.

 NO OUTPUT CONTROL FOR STRESS PERIOD    2   TIME STEP   29

 -------------------------------------------------------------------------------
                             SWR1 OUTPUT PRINT TIMES
                        STRESS PERIOD    2   TIME STEP    29
 --------------- --------------- --------------- --------------- ---------------
      7080.0                                                                    
 -------------------------------------------------------------------------------
 
 SOLVING FOR HEAD 
 INITIAL HNEW IS AN EXACT SOLUTION.

 NO OUTPUT CONTROL FOR STRESS PERIOD    2   TIME STEP   30

 -------------------------------------------------------------------------------
                             SWR1 OUTPUT PRINT TIMES
                        STRESS PERIOD    2   TIME STEP    30
 --------------- --------------- --------------- --------------- ---------------
      7200.0                                                                    
 -------------------------------------------------------------------------------


                    VOLUMETRIC SURFACE WATER BUDGET FOR ENTIRE MODEL
                    AT END OF TIME STEP    30 IN STRESS PERIOD    2
  -----------------------------------------------------------------------------------

        CUMULATIVE VOLUMES      L**3       RATES FOR THIS TIME STEP      L**3/T
        ------------------                 ------------------------

              IN:                                      IN:
              ---                                      ---
          LATERAL FLOW  =           1.7152         LATERAL FLOW  =       4.2171E-04
         UNSAT. RUNOFF  =           0.0000        UNSAT. RUNOFF  =           0.0000
              RAINFALL  =           2.4949             RAINFALL  =       6.1340E-04
           EVAPORATION  =           0.0000          EVAPORATION  =           0.0000
         REACH-AQ FLOW  =           0.0000        REACH-AQ FLOW  =           0.0000
         EXTERNAL FLOW  =           0.0000        EXTERNAL FLOW  =           0.0000
         BOUNDARY FLOW  =           0.0000        BOUNDARY FLOW  =           0.0000
         CONSTANT FLOW  =           0.0000        CONSTANT FLOW  =           0.0000
               STORAGE  =        4295.7163              STORAGE  =           0.5964

               TOTAL IN =        4299.9263              TOTAL IN =           0.5974

             OUT:                                     OUT:
             ----                                     ----
          LATERAL FLOW  =           0.0000         LATERAL FLOW  =           0.0000
         UNSAT. RUNOFF  =           0.0000        UNSAT. RUNOFF  =           0.0000
              RAINFALL  =           0.0000             RAINFALL  =           0.0000
           EVAPORATION  =           0.0000          EVAPORATION  =           0.0000
         REACH-AQ FLOW  =           0.0000        REACH-AQ FLOW  =           0.0000
         EXTERNAL FLOW  =           0.0000        EXTERNAL FLOW  =           0.0000
         BOUNDARY FLOW  =           0.0000        BOUNDARY FLOW  =           0.0000
         CONSTANT FLOW  =        4297.5132        CONSTANT FLOW  =           0.5969
               STORAGE  =           2.4137              STORAGE  =       5.7127E-04

              TOTAL OUT =        4299.9268             TOTAL OUT =           0.5974

               IN - OUT =      -4.8828E-04              IN - OUT =       1.7881E-07

    PERCENT DISCREPANCY =           0.00     PERCENT DISCREPANCY =           0.00

1
  VOLUMETRIC BUDGET FOR ENTIRE MODEL AT END OF TIME STEP   30, STRESS PERIOD   2
  ------------------------------------------------------------------------------

     CUMULATIVE VOLUMES      L**3       RATES FOR THIS TIME STEP      L**3/T
     ------------------                 ------------------------

           IN:                                      IN:
           ---                                      ---
             STORAGE =           0.0000               STORAGE =           0.0000
       CONSTANT HEAD =           0.0000         CONSTANT HEAD =           0.0000
         SWR LEAKAGE =           0.0000           SWR LEAKAGE =           0.0000
            SWR GWET =           0.0000              SWR GWET =           0.0000

            TOTAL IN =           0.0000              TOTAL IN =           0.0000

          OUT:                                     OUT:
          ----                                     ----
             STORAGE =           0.0000               STORAGE =           0.0000
       CONSTANT HEAD =           0.0000         CONSTANT HEAD =           0.0000
         SWR LEAKAGE =           0.0000           SWR LEAKAGE =           0.0000
            SWR GWET =           0.0000              SWR GWET =           0.0000

           TOTAL OUT =           0.0000             TOTAL OUT =           0.0000

            IN - OUT =           0.0000              IN - OUT =           0.0000

 PERCENT DISCREPANCY =           0.00     PERCENT DISCREPANCY =           0.00






         TIME SUMMARY AT END OF TIME STEP   30 IN STRESS PERIOD    2
                    SECONDS     MINUTES      HOURS       DAYS        YEARS
                    -----------------------------------------------------------
   TIME STEP LENGTH  120.00      2.0000     3.33333E-02 1.38889E-03 3.80257E-06
 STRESS PERIOD TIME  3600.0      60.000      1.0000     4.16667E-02 1.14077E-04
         TOTAL TIME  7200.0      120.00      2.0000     8.33333E-02 2.28154E-04
1
1
                            STRESS PERIOD NO.    3, LENGTH =   3600.000    
                            -----------------------------------------------

                              NUMBER OF TIME STEPS =    30

                               MULTIPLIER FOR DELT =     1.000

                            INITIAL TIME STEP SIZE =   120.0000    

 ...READING SWR1 PROCESS DATASET 5

 ...READING SWR1 PROCESS DATASET 7B



                   2D RAINFALL DATA
 READING ON UNIT   61 WITH FORMAT: (11E12.4)           

           1          2          3          4          5          6          7          8          9         10         11
 .........................................................................................................................
   1    0.00       0.00       0.00       0.00       0.00       0.00       0.00       0.00       0.00       0.00       0.00    
   2    0.00       0.00       0.00       0.00       0.00       0.00       0.00       0.00       0.00       0.00       0.00    
   3    0.00       0.00       0.00       0.00       0.00       0.00       0.00       0.00       0.00       0.00       0.00    
   4    0.00       0.00       0.00       0.00      1.084E-09  1.084E-09  1.084E-09   0.00       0.00       0.00       0.00    
   5    0.00       0.00       0.00       0.00      1.084E-09  1.084E-09  1.084E-09   0.00       0.00       0.00       0.00    
   6    0.00       0.00       0.00      1.084E-09  1.084E-09  1.084E-09  1.084E-09   0.00       0.00       0.00       0.00    
   7    0.00       0.00       0.00       0.00      1.084E-09  1.084E-09  1.084E-09   0.00       0.00       0.00       0.00    
   8    0.00       0.00       0.00       0.00      1.084E-09  1.084E-09  1.084E-09   0.00       0.00       0.00       0.00    
   9    0.00       0.00       0.00       0.00       0.00       0.00       0.00       0.00       0.00       0.00       0.00    
  10    0.00       0.00       0.00       0.00       0.00       0.00       0.00       0.00       0.00       0.00       0.00    
  11    0.00       0.00       0.00       0.00       0.00       0.00       0.00       0.00       0.00       0.00       0.00    

 ...READING SWR1 PROCESS DATASET 9B



             2D LATERAL INFLOW DATA
 READING ON UNIT   61 WITH FORMAT: (11E12.4)           

           1          2          3          4          5          6          7          8          9         10         11
 .........................................................................................................................
   1   2.710E-04   0.00       0.00       0.00       0.00       0.00       0.00       0.00       0.00       0.00       0.00    
   2   2.710E-04   0.00       0.00       0.00       0.00       0.00       0.00       0.00       0.00       0.00       0.00    
   3   2.710E-04   0.00       0.00       0.00       0.00       0.00       0.00       0.00       0.00       0.00       0.00    
   4   2.710E-04   0.00       0.00       0.00       0.00       0.00       0.00       0.00       0.00       0.00       0.00    
   5   2.710E-04   0.00       0.00       0.00       0.00       0.00       0.00       0.00       0.00       0.00       0.00    
   6   2.710E-04   0.00       0.00       0.00       0.00       0.00       0.00       0.00       0.00       0.00       0.00    
   7   2.710E-04   0.00       0.00       0.00       0.00       0.00       0.00       0.00       0.00       0.00       0.00    
   8   2.710E-04   0.00       0.00       0.00       0.00       0.00       0.00       0.00       0.00       0.00       0.00    
   9   2.710E-04   0.00       0.00       0.00       0.00       0.00       0.00       0.00       0.00       0.00       0.00    
  10   2.710E-04   0.00       0.00       0.00       0.00       0.00       0.00       0.00       0.00       0.00       0.00    
  11   2.710E-04   0.00       0.00       0.00       0.00       0.00       0.00       0.00       0.00       0.00       0.00    
 
 SOLVING FOR HEAD 
 INITIAL HNEW IS AN EXACT SOLUTION.

 OUTPUT CONTROL FOR STRESS PERIOD    3   TIME STEP    1
    SAVE BUDGET

 -------------------------------------------------------------------------------
                             SWR1 OUTPUT PRINT TIMES
                        STRESS PERIOD    3   TIME STEP     1
 --------------- --------------- --------------- --------------- ---------------
      7320.0                                                                    
 -------------------------------------------------------------------------------
 
 SOLVING FOR HEAD 
 INITIAL HNEW IS AN EXACT SOLUTION.

 NO OUTPUT CONTROL FOR STRESS PERIOD    3   TIME STEP    2

 -------------------------------------------------------------------------------
                             SWR1 OUTPUT PRINT TIMES
                        STRESS PERIOD    3   TIME STEP     2
 --------------- --------------- --------------- --------------- ---------------
      7440.0                                                                    
 -------------------------------------------------------------------------------
 
 SOLVING FOR HEAD 
 INITIAL HNEW IS AN EXACT SOLUTION.

 NO OUTPUT CONTROL FOR STRESS PERIOD    3   TIME STEP    3

 -------------------------------------------------------------------------------
                             SWR1 OUTPUT PRINT TIMES
                        STRESS PERIOD    3   TIME STEP     3
 --------------- --------------- --------------- --------------- ---------------
      7560.0                                                                    
 -------------------------------------------------------------------------------
 
 SOLVING FOR HEAD 
 INITIAL HNEW IS AN EXACT SOLUTION.

 NO OUTPUT CONTROL FOR STRESS PERIOD    3   TIME STEP    4

 -------------------------------------------------------------------------------
                             SWR1 OUTPUT PRINT TIMES
                        STRESS PERIOD    3   TIME STEP     4
 --------------- --------------- --------------- --------------- ---------------
      7680.0                                                                    
 -------------------------------------------------------------------------------
 
 SOLVING FOR HEAD 
 INITIAL HNEW IS AN EXACT SOLUTION.

 NO OUTPUT CONTROL FOR STRESS PERIOD    3   TIME STEP    5

 -------------------------------------------------------------------------------
                             SWR1 OUTPUT PRINT TIMES
                        STRESS PERIOD    3   TIME STEP     5
 --------------- --------------- --------------- --------------- ---------------
      7800.0                                                                    
 -------------------------------------------------------------------------------
 
 SOLVING FOR HEAD 
 INITIAL HNEW IS AN EXACT SOLUTION.

 NO OUTPUT CONTROL FOR STRESS PERIOD    3   TIME STEP    6

 -------------------------------------------------------------------------------
                             SWR1 OUTPUT PRINT TIMES
                        STRESS PERIOD    3   TIME STEP     6
 --------------- --------------- --------------- --------------- ---------------
      7920.0                                                                    
 -------------------------------------------------------------------------------
 
 SOLVING FOR HEAD 
 INITIAL HNEW IS AN EXACT SOLUTION.

 NO OUTPUT CONTROL FOR STRESS PERIOD    3   TIME STEP    7

 -------------------------------------------------------------------------------
                             SWR1 OUTPUT PRINT TIMES
                        STRESS PERIOD    3   TIME STEP     7
 --------------- --------------- --------------- --------------- ---------------
      8040.0                                                                    
 -------------------------------------------------------------------------------
 
 SOLVING FOR HEAD 
 INITIAL HNEW IS AN EXACT SOLUTION.

 NO OUTPUT CONTROL FOR STRESS PERIOD    3   TIME STEP    8

 -------------------------------------------------------------------------------
                             SWR1 OUTPUT PRINT TIMES
                        STRESS PERIOD    3   TIME STEP     8
 --------------- --------------- --------------- --------------- ---------------
      8160.0                                                                    
 -------------------------------------------------------------------------------
 
 SOLVING FOR HEAD 
 INITIAL HNEW IS AN EXACT SOLUTION.

 NO OUTPUT CONTROL FOR STRESS PERIOD    3   TIME STEP    9

 -------------------------------------------------------------------------------
                             SWR1 OUTPUT PRINT TIMES
                        STRESS PERIOD    3   TIME STEP     9
 --------------- --------------- --------------- --------------- ---------------
      8280.0                                                                    
 -------------------------------------------------------------------------------
 
 SOLVING FOR HEAD 
 INITIAL HNEW IS AN EXACT SOLUTION.

 NO OUTPUT CONTROL FOR STRESS PERIOD    3   TIME STEP   10

 -------------------------------------------------------------------------------
                             SWR1 OUTPUT PRINT TIMES
                        STRESS PERIOD    3   TIME STEP    10
 --------------- --------------- --------------- --------------- ---------------
      8400.0                                                                    
 -------------------------------------------------------------------------------
 
 SOLVING FOR HEAD 
 INITIAL HNEW IS AN EXACT SOLUTION.

 NO OUTPUT CONTROL FOR STRESS PERIOD    3   TIME STEP   11

 -------------------------------------------------------------------------------
                             SWR1 OUTPUT PRINT TIMES
                        STRESS PERIOD    3   TIME STEP    11
 --------------- --------------- --------------- --------------- ---------------
      8520.0                                                                    
 -------------------------------------------------------------------------------
 
 SOLVING FOR HEAD 
 INITIAL HNEW IS AN EXACT SOLUTION.

 NO OUTPUT CONTROL FOR STRESS PERIOD    3   TIME STEP   12

 -------------------------------------------------------------------------------
                             SWR1 OUTPUT PRINT TIMES
                        STRESS PERIOD    3   TIME STEP    12
 --------------- --------------- --------------- --------------- ---------------
      8640.0                                                                    
 -------------------------------------------------------------------------------
 
 SOLVING FOR HEAD 
 INITIAL HNEW IS AN EXACT SOLUTION.

 NO OUTPUT CONTROL FOR STRESS PERIOD    3   TIME STEP   13

 -------------------------------------------------------------------------------
                             SWR1 OUTPUT PRINT TIMES
                        STRESS PERIOD    3   TIME STEP    13
 --------------- --------------- --------------- --------------- ---------------
      8760.0                                                                    
 -------------------------------------------------------------------------------
 
 SOLVING FOR HEAD 
 INITIAL HNEW IS AN EXACT SOLUTION.

 NO OUTPUT CONTROL FOR STRESS PERIOD    3   TIME STEP   14

 -------------------------------------------------------------------------------
                             SWR1 OUTPUT PRINT TIMES
                        STRESS PERIOD    3   TIME STEP    14
 --------------- --------------- --------------- --------------- ---------------
      8880.0                                                                    
 -------------------------------------------------------------------------------
 
 SOLVING FOR HEAD 
 INITIAL HNEW IS AN EXACT SOLUTION.

 NO OUTPUT CONTROL FOR STRESS PERIOD    3   TIME STEP   15

 -------------------------------------------------------------------------------
                             SWR1 OUTPUT PRINT TIMES
                        STRESS PERIOD    3   TIME STEP    15
 --------------- --------------- --------------- --------------- ---------------
      9000.0                                                                    
 -------------------------------------------------------------------------------
 
 SOLVING FOR HEAD 
 INITIAL HNEW IS AN EXACT SOLUTION.

 NO OUTPUT CONTROL FOR STRESS PERIOD    3   TIME STEP   16

 -------------------------------------------------------------------------------
                             SWR1 OUTPUT PRINT TIMES
                        STRESS PERIOD    3   TIME STEP    16
 --------------- --------------- --------------- --------------- ---------------
      9120.0                                                                    
 -------------------------------------------------------------------------------
 
 SOLVING FOR HEAD 
 INITIAL HNEW IS AN EXACT SOLUTION.

 NO OUTPUT CONTROL FOR STRESS PERIOD    3   TIME STEP   17

 -------------------------------------------------------------------------------
                             SWR1 OUTPUT PRINT TIMES
                        STRESS PERIOD    3   TIME STEP    17
 --------------- --------------- --------------- --------------- ---------------
      9240.0                                                                    
 -------------------------------------------------------------------------------
 
 SOLVING FOR HEAD 
 INITIAL HNEW IS AN EXACT SOLUTION.

 NO OUTPUT CONTROL FOR STRESS PERIOD    3   TIME STEP   18

 -------------------------------------------------------------------------------
                             SWR1 OUTPUT PRINT TIMES
                        STRESS PERIOD    3   TIME STEP    18
 --------------- --------------- --------------- --------------- ---------------
      9360.0                                                                    
 -------------------------------------------------------------------------------
 
 SOLVING FOR HEAD 
 INITIAL HNEW IS AN EXACT SOLUTION.

 NO OUTPUT CONTROL FOR STRESS PERIOD    3   TIME STEP   19

 -------------------------------------------------------------------------------
                             SWR1 OUTPUT PRINT TIMES
                        STRESS PERIOD    3   TIME STEP    19
 --------------- --------------- --------------- --------------- ---------------
      9480.0                                                                    
 -------------------------------------------------------------------------------
 
 SOLVING FOR HEAD 
 INITIAL HNEW IS AN EXACT SOLUTION.

 NO OUTPUT CONTROL FOR STRESS PERIOD    3   TIME STEP   20

 -------------------------------------------------------------------------------
                             SWR1 OUTPUT PRINT TIMES
                        STRESS PERIOD    3   TIME STEP    20
 --------------- --------------- --------------- --------------- ---------------
      9600.0                                                                    
 -------------------------------------------------------------------------------
 
 SOLVING FOR HEAD 
 INITIAL HNEW IS AN EXACT SOLUTION.

 NO OUTPUT CONTROL FOR STRESS PERIOD    3   TIME STEP   21

 -------------------------------------------------------------------------------
                             SWR1 OUTPUT PRINT TIMES
                        STRESS PERIOD    3   TIME STEP    21
 --------------- --------------- --------------- --------------- ---------------
      9720.0                                                                    
 -------------------------------------------------------------------------------
 
 SOLVING FOR HEAD 
 INITIAL HNEW IS AN EXACT SOLUTION.

 NO OUTPUT CONTROL FOR STRESS PERIOD    3   TIME STEP   22

 -------------------------------------------------------------------------------
                             SWR1 OUTPUT PRINT TIMES
                        STRESS PERIOD    3   TIME STEP    22
 --------------- --------------- --------------- --------------- ---------------
      9840.0                                                                    
 -------------------------------------------------------------------------------
 
 SOLVING FOR HEAD 
 INITIAL HNEW IS AN EXACT SOLUTION.

 NO OUTPUT CONTROL FOR STRESS PERIOD    3   TIME STEP   23

 -------------------------------------------------------------------------------
                             SWR1 OUTPUT PRINT TIMES
                        STRESS PERIOD    3   TIME STEP    23
 --------------- --------------- --------------- --------------- ---------------
      9960.0                                                                    
 -------------------------------------------------------------------------------
 
 SOLVING FOR HEAD 
 INITIAL HNEW IS AN EXACT SOLUTION.

 NO OUTPUT CONTROL FOR STRESS PERIOD    3   TIME STEP   24

 -------------------------------------------------------------------------------
                             SWR1 OUTPUT PRINT TIMES
                        STRESS PERIOD    3   TIME STEP    24
 --------------- --------------- --------------- --------------- ---------------
      10080.                                                                    
 -------------------------------------------------------------------------------
 
 SOLVING FOR HEAD 
 INITIAL HNEW IS AN EXACT SOLUTION.

 NO OUTPUT CONTROL FOR STRESS PERIOD    3   TIME STEP   25

 -------------------------------------------------------------------------------
                             SWR1 OUTPUT PRINT TIMES
                        STRESS PERIOD    3   TIME STEP    25
 --------------- --------------- --------------- --------------- ---------------
      10200.                                                                    
 -------------------------------------------------------------------------------
 
 SOLVING FOR HEAD 
 INITIAL HNEW IS AN EXACT SOLUTION.

 NO OUTPUT CONTROL FOR STRESS PERIOD    3   TIME STEP   26

 -------------------------------------------------------------------------------
                             SWR1 OUTPUT PRINT TIMES
                        STRESS PERIOD    3   TIME STEP    26
 --------------- --------------- --------------- --------------- ---------------
      10320.                                                                    
 -------------------------------------------------------------------------------
 
 SOLVING FOR HEAD 
 INITIAL HNEW IS AN EXACT SOLUTION.

 NO OUTPUT CONTROL FOR STRESS PERIOD    3   TIME STEP   27

 -------------------------------------------------------------------------------
                             SWR1 OUTPUT PRINT TIMES
                        STRESS PERIOD    3   TIME STEP    27
 --------------- --------------- --------------- --------------- ---------------
      10440.                                                                    
 -------------------------------------------------------------------------------
 
 SOLVING FOR HEAD 
 INITIAL HNEW IS AN EXACT SOLUTION.

 NO OUTPUT CONTROL FOR STRESS PERIOD    3   TIME STEP   28

 -------------------------------------------------------------------------------
                             SWR1 OUTPUT PRINT TIMES
                        STRESS PERIOD    3   TIME STEP    28
 --------------- --------------- --------------- --------------- ---------------
      10560.                                                                    
 -------------------------------------------------------------------------------
 
 SOLVING FOR HEAD 
 INITIAL HNEW IS AN EXACT SOLUTION.

 NO OUTPUT CONTROL FOR STRESS PERIOD    3   TIME STEP   29

 -------------------------------------------------------------------------------
                             SWR1 OUTPUT PRINT TIMES
                        STRESS PERIOD    3   TIME STEP    29
 --------------- --------------- --------------- --------------- ---------------
      10680.                                                                    
 -------------------------------------------------------------------------------
 
 SOLVING FOR HEAD 
 INITIAL HNEW IS AN EXACT SOLUTION.

 NO OUTPUT CONTROL FOR STRESS PERIOD    3   TIME STEP   30

 -------------------------------------------------------------------------------
                             SWR1 OUTPUT PRINT TIMES
                        STRESS PERIOD    3   TIME STEP    30
 --------------- --------------- --------------- --------------- ---------------
      10800.                                                                    
 -------------------------------------------------------------------------------


                    VOLUMETRIC SURFACE WATER BUDGET FOR ENTIRE MODEL
                    AT END OF TIME STEP    30 IN STRESS PERIOD    3
  -----------------------------------------------------------------------------------

        CUMULATIVE VOLUMES      L**3       RATES FOR THIS TIME STEP      L**3/T
        ------------------                 ------------------------

              IN:                                      IN:
              ---                                      ---
          LATERAL FLOW  =          12.4464         LATERAL FLOW  =       2.9809E-03
         UNSAT. RUNOFF  =           0.0000        UNSAT. RUNOFF  =           0.0000
              RAINFALL  =          18.1045             RAINFALL  =       4.3360E-03
           EVAPORATION  =           0.0000          EVAPORATION  =           0.0000
         REACH-AQ FLOW  =           0.0000        REACH-AQ FLOW  =           0.0000
         EXTERNAL FLOW  =           0.0000        EXTERNAL FLOW  =           0.0000
         BOUNDARY FLOW  =           0.0000        BOUNDARY FLOW  =           0.0000
         CONSTANT FLOW  =           0.0000        CONSTANT FLOW  =           0.0000
               STORAGE  =        6433.3921              STORAGE  =           0.5937

               TOTAL IN =        6463.9429              TOTAL IN =           0.6011

             OUT:                                     OUT:
             ----                                     ----
          LATERAL FLOW  =           0.0000         LATERAL FLOW  =           0.0000
         UNSAT. RUNOFF  =           0.0000        UNSAT. RUNOFF  =           0.0000
              RAINFALL  =           0.0000             RAINFALL  =           0.0000
           EVAPORATION  =           0.0000          EVAPORATION  =           0.0000
         REACH-AQ FLOW  =           0.0000        REACH-AQ FLOW  =           0.0000
         EXTERNAL FLOW  =           0.0000        EXTERNAL FLOW  =           0.0000
         BOUNDARY FLOW  =           0.0000        BOUNDARY FLOW  =           0.0000
         CONSTANT FLOW  =        6446.2632        CONSTANT FLOW  =           0.5969
               STORAGE  =          17.6736              STORAGE  =       4.1784E-03

              TOTAL OUT =        6463.9365             TOTAL OUT =           0.6011

               IN - OUT =       6.3477E-03              IN - OUT =       2.3842E-07

    PERCENT DISCREPANCY =           0.00     PERCENT DISCREPANCY =           0.00

1
  VOLUMETRIC BUDGET FOR ENTIRE MODEL AT END OF TIME STEP   30, STRESS PERIOD   3
  ------------------------------------------------------------------------------

     CUMULATIVE VOLUMES      L**3       RATES FOR THIS TIME STEP      L**3/T
     ------------------                 ------------------------

           IN:                                      IN:
           ---                                      ---
             STORAGE =           0.0000               STORAGE =           0.0000
       CONSTANT HEAD =           0.0000         CONSTANT HEAD =           0.0000
         SWR LEAKAGE =           0.0000           SWR LEAKAGE =           0.0000
            SWR GWET =           0.0000              SWR GWET =           0.0000

            TOTAL IN =           0.0000              TOTAL IN =           0.0000

          OUT:                                     OUT:
          ----                                     ----
             STORAGE =           0.0000               STORAGE =           0.0000
       CONSTANT HEAD =           0.0000         CONSTANT HEAD =           0.0000
         SWR LEAKAGE =           0.0000           SWR LEAKAGE =           0.0000
            SWR GWET =           0.0000              SWR GWET =           0.0000

           TOTAL OUT =           0.0000             TOTAL OUT =           0.0000

            IN - OUT =           0.0000              IN - OUT =           0.0000

 PERCENT DISCREPANCY =           0.00     PERCENT DISCREPANCY =           0.00






         TIME SUMMARY AT END OF TIME STEP   30 IN STRESS PERIOD    3
                    SECONDS     MINUTES      HOURS       DAYS        YEARS
                    -----------------------------------------------------------
   TIME STEP LENGTH  120.00      2.0000     3.33333E-02 1.38889E-03 3.80257E-06
 STRESS PERIOD TIME  3600.0      60.000      1.0000     4.16667E-02 1.14077E-04
         TOTAL TIME  10800.      180.00      3.0000     0.12500     3.42231E-04
1
1
                            STRESS PERIOD NO.    4, LENGTH =   3600.000    
                            -----------------------------------------------

                              NUMBER OF TIME STEPS =    30

                               MULTIPLIER FOR DELT =     1.000

                            INITIAL TIME STEP SIZE =   120.0000    

 ...READING SWR1 PROCESS DATASET 5

 ...READING SWR1 PROCESS DATASET 7B



                   2D RAINFALL DATA
 READING ON UNIT   61 WITH FORMAT: (11E12.4)           

           1          2          3          4          5          6          7          8          9         10         11
 .........................................................................................................................
   1    0.00       0.00       0.00       0.00       0.00       0.00       0.00       0.00       0.00       0.00       0.00    
   2    0.00       0.00       0.00       0.00       0.00       0.00       0.00       0.00       0.00       0.00       0.00    
   3    0.00       0.00       0.00       0.00       0.00       0.00       0.00       0.00       0.00       0.00       0.00    
   4    0.00       0.00       0.00       0.00      6.358E-09  6.358E-09  6.358E-09   0.00       0.00       0.00       0.00    
   5    0.00       0.00       0.00       0.00      6.358E-09  6.358E-09  6.358E-09   0.00       0.00       0.00       0.00    
   6    0.00       0.00       0.00      6.358E-09  6.358E-09  6.358E-09  6.358E-09   0.00       0.00       0.00       0.00    
   7    0.00       0.00       0.00       0.00      6.358E-09  6.358E-09  6.358E-09   0.00       0.00       0.00       0.00    
   8    0.00       0.00       0.00       0.00      6.358E-09  6.358E-09  6.358E-09   0.00       0.00       0.00       0.00    
   9    0.00       0.00       0.00       0.00       0.00       0.00       0.00       0.00       0.00       0.00       0.00    
  10    0.00       0.00       0.00       0.00       0.00       0.00       0.00       0.00       0.00       0.00       0.00    
  11    0.00       0.00       0.00       0.00       0.00       0.00       0.00       0.00       0.00       0.00       0.00    

 ...READING SWR1 PROCESS DATASET 9B



             2D LATERAL INFLOW DATA
 READING ON UNIT   61 WITH FORMAT: (11E12.4)           

           1          2          3          4          5          6          7          8          9         10         11
 .........................................................................................................................
   1   1.589E-03   0.00       0.00       0.00       0.00       0.00       0.00       0.00       0.00       0.00       0.00    
   2   1.589E-03   0.00       0.00       0.00       0.00       0.00       0.00       0.00       0.00       0.00       0.00    
   3   1.589E-03   0.00       0.00       0.00       0.00       0.00       0.00       0.00       0.00       0.00       0.00    
   4   1.589E-03   0.00       0.00       0.00       0.00       0.00       0.00       0.00       0.00       0.00       0.00    
   5   1.589E-03   0.00       0.00       0.00       0.00       0.00       0.00       0.00       0.00       0.00       0.00    
   6   1.589E-03   0.00       0.00       0.00       0.00       0.00       0.00       0.00       0.00       0.00       0.00    
   7   1.589E-03   0.00       0.00       0.00       0.00       0.00       0.00       0.00       0.00       0.00       0.00    
   8   1.589E-03   0.00       0.00       0.00       0.00       0.00       0.00       0.00       0.00       0.00       0.00    
   9   1.589E-03   0.00       0.00       0.00       0.00       0.00       0.00       0.00       0.00       0.00       0.00    
  10   1.589E-03   0.00       0.00       0.00       0.00       0.00       0.00       0.00       0.00       0.00       0.00    
  11   1.589E-03   0.00       0.00       0.00       0.00       0.00       0.00       0.00       0.00       0.00       0.00    
 
 SOLVING FOR HEAD 
 INITIAL HNEW IS AN EXACT SOLUTION.

 OUTPUT CONTROL FOR STRESS PERIOD    4   TIME STEP    1
    SAVE BUDGET

 -------------------------------------------------------------------------------
                             SWR1 OUTPUT PRINT TIMES
                        STRESS PERIOD    4   TIME STEP     1
 --------------- --------------- --------------- --------------- ---------------
      10920.                                                                    
 -------------------------------------------------------------------------------
 
 SOLVING FOR HEAD 
 INITIAL HNEW IS AN EXACT SOLUTION.

 NO OUTPUT CONTROL FOR STRESS PERIOD    4   TIME STEP    2

 -------------------------------------------------------------------------------
                             SWR1 OUTPUT PRINT TIMES
                        STRESS PERIOD    4   TIME STEP     2
 --------------- --------------- --------------- --------------- ---------------
      11040.                                                                    
 -------------------------------------------------------------------------------
 
 SOLVING FOR HEAD 
 INITIAL HNEW IS AN EXACT SOLUTION.

 NO OUTPUT CONTROL FOR STRESS PERIOD    4   TIME STEP    3

 -------------------------------------------------------------------------------
                             SWR1 OUTPUT PRINT TIMES
                        STRESS PERIOD    4   TIME STEP     3
 --------------- --------------- --------------- --------------- ---------------
      11160.                                                                    
 -------------------------------------------------------------------------------
 
 SOLVING FOR HEAD 
 INITIAL HNEW IS AN EXACT SOLUTION.

 NO OUTPUT CONTROL FOR STRESS PERIOD    4   TIME STEP    4

 -------------------------------------------------------------------------------
                             SWR1 OUTPUT PRINT TIMES
                        STRESS PERIOD    4   TIME STEP     4
 --------------- --------------- --------------- --------------- ---------------
      11280.                                                                    
 -------------------------------------------------------------------------------
 
 SOLVING FOR HEAD 
 INITIAL HNEW IS AN EXACT SOLUTION.

 NO OUTPUT CONTROL FOR STRESS PERIOD    4   TIME STEP    5

 -------------------------------------------------------------------------------
                             SWR1 OUTPUT PRINT TIMES
                        STRESS PERIOD    4   TIME STEP     5
 --------------- --------------- --------------- --------------- ---------------
      11400.                                                                    
 -------------------------------------------------------------------------------
 
 SOLVING FOR HEAD 
 INITIAL HNEW IS AN EXACT SOLUTION.

 NO OUTPUT CONTROL FOR STRESS PERIOD    4   TIME STEP    6

 -------------------------------------------------------------------------------
                             SWR1 OUTPUT PRINT TIMES
                        STRESS PERIOD    4   TIME STEP     6
 --------------- --------------- --------------- --------------- ---------------
      11520.                                                                    
 -------------------------------------------------------------------------------
 
 SOLVING FOR HEAD 
 INITIAL HNEW IS AN EXACT SOLUTION.

 NO OUTPUT CONTROL FOR STRESS PERIOD    4   TIME STEP    7

 -------------------------------------------------------------------------------
                             SWR1 OUTPUT PRINT TIMES
                        STRESS PERIOD    4   TIME STEP     7
 --------------- --------------- --------------- --------------- ---------------
      11640.                                                                    
 -------------------------------------------------------------------------------
 
 SOLVING FOR HEAD 
 INITIAL HNEW IS AN EXACT SOLUTION.

 NO OUTPUT CONTROL FOR STRESS PERIOD    4   TIME STEP    8

 -------------------------------------------------------------------------------
                             SWR1 OUTPUT PRINT TIMES
                        STRESS PERIOD    4   TIME STEP     8
 --------------- --------------- --------------- --------------- ---------------
      11760.                                                                    
 -------------------------------------------------------------------------------
 
 SOLVING FOR HEAD 
 INITIAL HNEW IS AN EXACT SOLUTION.

 NO OUTPUT CONTROL FOR STRESS PERIOD    4   TIME STEP    9

 -------------------------------------------------------------------------------
                             SWR1 OUTPUT PRINT TIMES
                        STRESS PERIOD    4   TIME STEP     9
 --------------- --------------- --------------- --------------- ---------------
      11880.                                                                    
 -------------------------------------------------------------------------------
 
 SOLVING FOR HEAD 
 INITIAL HNEW IS AN EXACT SOLUTION.

 NO OUTPUT CONTROL FOR STRESS PERIOD    4   TIME STEP   10

 -------------------------------------------------------------------------------
                             SWR1 OUTPUT PRINT TIMES
                        STRESS PERIOD    4   TIME STEP    10
 --------------- --------------- --------------- --------------- ---------------
      12000.                                                                    
 -------------------------------------------------------------------------------
 
 SOLVING FOR HEAD 
 INITIAL HNEW IS AN EXACT SOLUTION.

 NO OUTPUT CONTROL FOR STRESS PERIOD    4   TIME STEP   11

 -------------------------------------------------------------------------------
                             SWR1 OUTPUT PRINT TIMES
                        STRESS PERIOD    4   TIME STEP    11
 --------------- --------------- --------------- --------------- ---------------
      12120.                                                                    
 -------------------------------------------------------------------------------
 
 SOLVING FOR HEAD 
 INITIAL HNEW IS AN EXACT SOLUTION.

 NO OUTPUT CONTROL FOR STRESS PERIOD    4   TIME STEP   12

 -------------------------------------------------------------------------------
                             SWR1 OUTPUT PRINT TIMES
                        STRESS PERIOD    4   TIME STEP    12
 --------------- --------------- --------------- --------------- ---------------
      12240.                                                                    
 -------------------------------------------------------------------------------
 
 SOLVING FOR HEAD 
 INITIAL HNEW IS AN EXACT SOLUTION.

 NO OUTPUT CONTROL FOR STRESS PERIOD    4   TIME STEP   13

 -------------------------------------------------------------------------------
                             SWR1 OUTPUT PRINT TIMES
                        STRESS PERIOD    4   TIME STEP    13
 --------------- --------------- --------------- --------------- ---------------
      12360.                                                                    
 -------------------------------------------------------------------------------
 
 SOLVING FOR HEAD 
 INITIAL HNEW IS AN EXACT SOLUTION.

 NO OUTPUT CONTROL FOR STRESS PERIOD    4   TIME STEP   14

 -------------------------------------------------------------------------------
                             SWR1 OUTPUT PRINT TIMES
                        STRESS PERIOD    4   TIME STEP    14
 --------------- --------------- --------------- --------------- ---------------
      12480.                                                                    
 -------------------------------------------------------------------------------
 
 SOLVING FOR HEAD 
 INITIAL HNEW IS AN EXACT SOLUTION.

 NO OUTPUT CONTROL FOR STRESS PERIOD    4   TIME STEP   15

 -------------------------------------------------------------------------------
                             SWR1 OUTPUT PRINT TIMES
                        STRESS PERIOD    4   TIME STEP    15
 --------------- --------------- --------------- --------------- ---------------
      12600.                                                                    
 -------------------------------------------------------------------------------
 
 SOLVING FOR HEAD 
 INITIAL HNEW IS AN EXACT SOLUTION.

 NO OUTPUT CONTROL FOR STRESS PERIOD    4   TIME STEP   16

 -------------------------------------------------------------------------------
                             SWR1 OUTPUT PRINT TIMES
                        STRESS PERIOD    4   TIME STEP    16
 --------------- --------------- --------------- --------------- ---------------
      12720.                                                                    
 -------------------------------------------------------------------------------
 
 SOLVING FOR HEAD 
 INITIAL HNEW IS AN EXACT SOLUTION.

 NO OUTPUT CONTROL FOR STRESS PERIOD    4   TIME STEP   17

 -------------------------------------------------------------------------------
                             SWR1 OUTPUT PRINT TIMES
                        STRESS PERIOD    4   TIME STEP    17
 --------------- --------------- --------------- --------------- ---------------
      12840.                                                                    
 -------------------------------------------------------------------------------
 
 SOLVING FOR HEAD 
 INITIAL HNEW IS AN EXACT SOLUTION.

 NO OUTPUT CONTROL FOR STRESS PERIOD    4   TIME STEP   18

 -------------------------------------------------------------------------------
                             SWR1 OUTPUT PRINT TIMES
                        STRESS PERIOD    4   TIME STEP    18
 --------------- --------------- --------------- --------------- ---------------
      12960.                                                                    
 -------------------------------------------------------------------------------
 
 SOLVING FOR HEAD 
 INITIAL HNEW IS AN EXACT SOLUTION.

 NO OUTPUT CONTROL FOR STRESS PERIOD    4   TIME STEP   19

 -------------------------------------------------------------------------------
                             SWR1 OUTPUT PRINT TIMES
                        STRESS PERIOD    4   TIME STEP    19
 --------------- --------------- --------------- --------------- ---------------
      13080.                                                                    
 -------------------------------------------------------------------------------
 
 SOLVING FOR HEAD 
 INITIAL HNEW IS AN EXACT SOLUTION.

 NO OUTPUT CONTROL FOR STRESS PERIOD    4   TIME STEP   20

 -------------------------------------------------------------------------------
                             SWR1 OUTPUT PRINT TIMES
                        STRESS PERIOD    4   TIME STEP    20
 --------------- --------------- --------------- --------------- ---------------
      13200.                                                                    
 -------------------------------------------------------------------------------
 
 SOLVING FOR HEAD 
 INITIAL HNEW IS AN EXACT SOLUTION.

 NO OUTPUT CONTROL FOR STRESS PERIOD    4   TIME STEP   21

 -------------------------------------------------------------------------------
                             SWR1 OUTPUT PRINT TIMES
                        STRESS PERIOD    4   TIME STEP    21
 --------------- --------------- --------------- --------------- ---------------
      13320.                                                                    
 -------------------------------------------------------------------------------
 
 SOLVING FOR HEAD 
 INITIAL HNEW IS AN EXACT SOLUTION.

 NO OUTPUT CONTROL FOR STRESS PERIOD    4   TIME STEP   22

 -------------------------------------------------------------------------------
                             SWR1 OUTPUT PRINT TIMES
                        STRESS PERIOD    4   TIME STEP    22
 --------------- --------------- --------------- --------------- ---------------
      13440.                                                                    
 -------------------------------------------------------------------------------
 
 SOLVING FOR HEAD 
 INITIAL HNEW IS AN EXACT SOLUTION.

 NO OUTPUT CONTROL FOR STRESS PERIOD    4   TIME STEP   23

 -------------------------------------------------------------------------------
                             SWR1 OUTPUT PRINT TIMES
                        STRESS PERIOD    4   TIME STEP    23
 --------------- --------------- --------------- --------------- ---------------
      13560.                                                                    
 -------------------------------------------------------------------------------
 
 SOLVING FOR HEAD 
 INITIAL HNEW IS AN EXACT SOLUTION.

 NO OUTPUT CONTROL FOR STRESS PERIOD    4   TIME STEP   24

 -------------------------------------------------------------------------------
                             SWR1 OUTPUT PRINT TIMES
                        STRESS PERIOD    4   TIME STEP    24
 --------------- --------------- --------------- --------------- ---------------
      13680.                                                                    
 -------------------------------------------------------------------------------
 
 SOLVING FOR HEAD 
 INITIAL HNEW IS AN EXACT SOLUTION.

 NO OUTPUT CONTROL FOR STRESS PERIOD    4   TIME STEP   25

 -------------------------------------------------------------------------------
                             SWR1 OUTPUT PRINT TIMES
                        STRESS PERIOD    4   TIME STEP    25
 --------------- --------------- --------------- --------------- ---------------
      13800.                                                                    
 -------------------------------------------------------------------------------
 
 SOLVING FOR HEAD 
 INITIAL HNEW IS AN EXACT SOLUTION.

 NO OUTPUT CONTROL FOR STRESS PERIOD    4   TIME STEP   26

 -------------------------------------------------------------------------------
                             SWR1 OUTPUT PRINT TIMES
                        STRESS PERIOD    4   TIME STEP    26
 --------------- --------------- --------------- --------------- ---------------
      13920.                                                                    
 -------------------------------------------------------------------------------
 
 SOLVING FOR HEAD 
 INITIAL HNEW IS AN EXACT SOLUTION.

 NO OUTPUT CONTROL FOR STRESS PERIOD    4   TIME STEP   27

 -------------------------------------------------------------------------------
                             SWR1 OUTPUT PRINT TIMES
                        STRESS PERIOD    4   TIME STEP    27
 --------------- --------------- --------------- --------------- ---------------
      14040.                                                                    
 -------------------------------------------------------------------------------
 
 SOLVING FOR HEAD 
 INITIAL HNEW IS AN EXACT SOLUTION.

 NO OUTPUT CONTROL FOR STRESS PERIOD    4   TIME STEP   28

 -------------------------------------------------------------------------------
                             SWR1 OUTPUT PRINT TIMES
                        STRESS PERIOD    4   TIME STEP    28
 --------------- --------------- --------------- --------------- ---------------
      14160.                                                                    
 -------------------------------------------------------------------------------
 
 SOLVING FOR HEAD 
 INITIAL HNEW IS AN EXACT SOLUTION.

 NO OUTPUT CONTROL FOR STRESS PERIOD    4   TIME STEP   29

 -------------------------------------------------------------------------------
                             SWR1 OUTPUT PRINT TIMES
                        STRESS PERIOD    4   TIME STEP    29
 --------------- --------------- --------------- --------------- ---------------
      14280.                                                                    
 -------------------------------------------------------------------------------
 
 SOLVING FOR HEAD 
 INITIAL HNEW IS AN EXACT SOLUTION.

 NO OUTPUT CONTROL FOR STRESS PERIOD    4   TIME STEP   30

 -------------------------------------------------------------------------------
                             SWR1 OUTPUT PRINT TIMES
                        STRESS PERIOD    4   TIME STEP    30
 --------------- --------------- --------------- --------------- ---------------
      14400.                                                                    
 -------------------------------------------------------------------------------


                    VOLUMETRIC SURFACE WATER BUDGET FOR ENTIRE MODEL
                    AT END OF TIME STEP    30 IN STRESS PERIOD    4
  -----------------------------------------------------------------------------------

        CUMULATIVE VOLUMES      L**3       RATES FOR THIS TIME STEP      L**3/T
        ------------------                 ------------------------

              IN:                                      IN:
              ---                                      ---
          LATERAL FLOW  =          75.3906         LATERAL FLOW  =       1.7484E-02
         UNSAT. RUNOFF  =           0.0000        UNSAT. RUNOFF  =           0.0000
              RAINFALL  =         109.6625             RAINFALL  =       2.5433E-02
           EVAPORATION  =           0.0000          EVAPORATION  =           0.0000
         REACH-AQ FLOW  =           0.0000        REACH-AQ FLOW  =           0.0000
         EXTERNAL FLOW  =           0.0000        EXTERNAL FLOW  =           0.0000
         BOUNDARY FLOW  =           0.0000        BOUNDARY FLOW  =           0.0000
         CONSTANT FLOW  =           0.0000        CONSTANT FLOW  =           0.0000
               STORAGE  =        8518.3047              STORAGE  =           0.5790

               TOTAL IN =        8703.3574              TOTAL IN =           0.6220

             OUT:                                     OUT:
             ----                                     ----
          LATERAL FLOW  =           0.0000         LATERAL FLOW  =           0.0000
         UNSAT. RUNOFF  =           0.0000        UNSAT. RUNOFF  =           0.0000
              RAINFALL  =           0.0000             RAINFALL  =           0.0000
           EVAPORATION  =           0.0000          EVAPORATION  =           0.0000
         REACH-AQ FLOW  =           0.0000        REACH-AQ FLOW  =           0.0000
         EXTERNAL FLOW  =           0.0000        EXTERNAL FLOW  =           0.0000
         BOUNDARY FLOW  =           0.0000        BOUNDARY FLOW  =           0.0000
         CONSTANT FLOW  =        8595.0137        CONSTANT FLOW  =           0.5969
               STORAGE  =         108.3327              STORAGE  =       2.5078E-02

              TOTAL OUT =        8703.3467             TOTAL OUT =           0.6220

               IN - OUT =       1.0742E-02              IN - OUT =       2.3842E-07

    PERCENT DISCREPANCY =           0.00     PERCENT DISCREPANCY =           0.00

1
  VOLUMETRIC BUDGET FOR ENTIRE MODEL AT END OF TIME STEP   30, STRESS PERIOD   4
  ------------------------------------------------------------------------------

     CUMULATIVE VOLUMES      L**3       RATES FOR THIS TIME STEP      L**3/T
     ------------------                 ------------------------

           IN:                                      IN:
           ---                                      ---
             STORAGE =           0.0000               STORAGE =           0.0000
       CONSTANT HEAD =           0.0000         CONSTANT HEAD =           0.0000
         SWR LEAKAGE =           0.0000           SWR LEAKAGE =           0.0000
            SWR GWET =           0.0000              SWR GWET =           0.0000

            TOTAL IN =           0.0000              TOTAL IN =           0.0000

          OUT:                                     OUT:
          ----                                     ----
             STORAGE =           0.0000               STORAGE =           0.0000
       CONSTANT HEAD =           0.0000         CONSTANT HEAD =           0.0000
         SWR LEAKAGE =           0.0000           SWR LEAKAGE =           0.0000
            SWR GWET =           0.0000              SWR GWET =           0.0000

           TOTAL OUT =           0.0000             TOTAL OUT =           0.0000

            IN - OUT =           0.0000              IN - OUT =           0.0000

 PERCENT DISCREPANCY =           0.00     PERCENT DISCREPANCY =           0.00






         TIME SUMMARY AT END OF TIME STEP   30 IN STRESS PERIOD    4
                    SECONDS     MINUTES      HOURS       DAYS        YEARS
                    -----------------------------------------------------------
   TIME STEP LENGTH  120.00      2.0000     3.33333E-02 1.38889E-03 3.80257E-06
 STRESS PERIOD TIME  3600.0      60.000      1.0000     4.16667E-02 1.14077E-04
         TOTAL TIME  14400.      240.00      4.0000     0.16667     4.56308E-04
1
1
                            STRESS PERIOD NO.    5, LENGTH =   3600.000    
                            -----------------------------------------------

                              NUMBER OF TIME STEPS =    30

                               MULTIPLIER FOR DELT =     1.000

                            INITIAL TIME STEP SIZE =   120.0000    

 ...READING SWR1 PROCESS DATASET 5

 ...READING SWR1 PROCESS DATASET 7B



                   2D RAINFALL DATA
 READING ON UNIT   61 WITH FORMAT: (11E12.4)           

           1          2          3          4          5          6          7          8          9         10         11
 .........................................................................................................................
   1    0.00       0.00       0.00       0.00       0.00       0.00       0.00       0.00       0.00       0.00       0.00    
   2    0.00       0.00       0.00       0.00       0.00       0.00       0.00       0.00       0.00       0.00       0.00    
   3    0.00       0.00       0.00       0.00       0.00       0.00       0.00       0.00       0.00       0.00       0.00    
   4    0.00       0.00       0.00       0.00      3.095E-08  3.095E-08  3.095E-08   0.00       0.00       0.00       0.00    
   5    0.00       0.00       0.00       0.00      3.095E-08  3.095E-08  3.095E-08   0.00       0.00       0.00       0.00    
   6    0.00       0.00       0.00      3.095E-08  3.095E-08  3.095E-08  3.095E-08   0.00       0.00       0.00       0.00    
   7    0.00       0.00       0.00       0.00      3.095E-08  3.095E-08  3.095E-08   0.00       0.00       0.00       0.00    
   8    0.00       0.00       0.00       0.00      3.095E-08  3.095E-08  3.095E-08   0.00       0.00       0.00       0.00    
   9    0.00       0.00       0.00       0.00       0.00       0.00       0.00       0.00       0.00       0.00       0.00    
  10    0.00       0.00       0.00       0.00       0.00       0.00       0.00       0.00       0.00       0.00       0.00    
  11    0.00       0.00       0.00       0.00       0.00       0.00       0.00       0.00       0.00       0.00       0.00    

 ...READING SWR1 PROCESS DATASET 9B



             2D LATERAL INFLOW DATA
 READING ON UNIT   61 WITH FORMAT: (11E12.4)           

           1          2          3          4          5          6          7          8          9         10         11
 .........................................................................................................................
   1   7.738E-03   0.00       0.00       0.00       0.00       0.00       0.00       0.00       0.00       0.00       0.00    
   2   7.738E-03   0.00       0.00       0.00       0.00       0.00       0.00       0.00       0.00       0.00       0.00    
   3   7.738E-03   0.00       0.00       0.00       0.00       0.00       0.00       0.00       0.00       0.00       0.00    
   4   7.738E-03   0.00       0.00       0.00       0.00       0.00       0.00       0.00       0.00       0.00       0.00    
   5   7.738E-03   0.00       0.00       0.00       0.00       0.00       0.00       0.00       0.00       0.00       0.00    
   6   7.738E-03   0.00       0.00       0.00       0.00       0.00       0.00       0.00       0.00       0.00       0.00    
   7   7.738E-03   0.00       0.00       0.00       0.00       0.00       0.00       0.00       0.00       0.00       0.00    
   8   7.738E-03   0.00       0.00       0.00       0.00       0.00       0.00       0.00       0.00       0.00       0.00    
   9   7.738E-03   0.00       0.00       0.00       0.00       0.00       0.00       0.00       0.00       0.00       0.00    
  10   7.738E-03   0.00       0.00       0.00       0.00       0.00       0.00       0.00       0.00       0.00       0.00    
  11   7.738E-03   0.00       0.00       0.00       0.00       0.00       0.00       0.00       0.00       0.00       0.00    
 
 SOLVING FOR HEAD 
 INITIAL HNEW IS AN EXACT SOLUTION.

 OUTPUT CONTROL FOR STRESS PERIOD    5   TIME STEP    1
    SAVE BUDGET

 -------------------------------------------------------------------------------
                             SWR1 OUTPUT PRINT TIMES
                        STRESS PERIOD    5   TIME STEP     1
 --------------- --------------- --------------- --------------- ---------------
      14520.                                                                    
 -------------------------------------------------------------------------------
 
 SOLVING FOR HEAD 
 INITIAL HNEW IS AN EXACT SOLUTION.

 NO OUTPUT CONTROL FOR STRESS PERIOD    5   TIME STEP    2

 -------------------------------------------------------------------------------
                             SWR1 OUTPUT PRINT TIMES
                        STRESS PERIOD    5   TIME STEP     2
 --------------- --------------- --------------- --------------- ---------------
      14640.                                                                    
 -------------------------------------------------------------------------------
 
 SOLVING FOR HEAD 
 INITIAL HNEW IS AN EXACT SOLUTION.

 NO OUTPUT CONTROL FOR STRESS PERIOD    5   TIME STEP    3

 -------------------------------------------------------------------------------
                             SWR1 OUTPUT PRINT TIMES
                        STRESS PERIOD    5   TIME STEP     3
 --------------- --------------- --------------- --------------- ---------------
      14760.                                                                    
 -------------------------------------------------------------------------------
 
 SOLVING FOR HEAD 
 INITIAL HNEW IS AN EXACT SOLUTION.

 NO OUTPUT CONTROL FOR STRESS PERIOD    5   TIME STEP    4

 -------------------------------------------------------------------------------
                             SWR1 OUTPUT PRINT TIMES
                        STRESS PERIOD    5   TIME STEP     4
 --------------- --------------- --------------- --------------- ---------------
      14880.                                                                    
 -------------------------------------------------------------------------------
 
 SOLVING FOR HEAD 
 INITIAL HNEW IS AN EXACT SOLUTION.

 NO OUTPUT CONTROL FOR STRESS PERIOD    5   TIME STEP    5

 -------------------------------------------------------------------------------
                             SWR1 OUTPUT PRINT TIMES
                        STRESS PERIOD    5   TIME STEP     5
 --------------- --------------- --------------- --------------- ---------------
      15000.                                                                    
 -------------------------------------------------------------------------------
 
 SOLVING FOR HEAD 
 INITIAL HNEW IS AN EXACT SOLUTION.

 NO OUTPUT CONTROL FOR STRESS PERIOD    5   TIME STEP    6

 -------------------------------------------------------------------------------
                             SWR1 OUTPUT PRINT TIMES
                        STRESS PERIOD    5   TIME STEP     6
 --------------- --------------- --------------- --------------- ---------------
      15120.                                                                    
 -------------------------------------------------------------------------------
 
 SOLVING FOR HEAD 
 INITIAL HNEW IS AN EXACT SOLUTION.

 NO OUTPUT CONTROL FOR STRESS PERIOD    5   TIME STEP    7

 -------------------------------------------------------------------------------
                             SWR1 OUTPUT PRINT TIMES
                        STRESS PERIOD    5   TIME STEP     7
 --------------- --------------- --------------- --------------- ---------------
      15240.                                                                    
 -------------------------------------------------------------------------------
 
 SOLVING FOR HEAD 
 INITIAL HNEW IS AN EXACT SOLUTION.

 NO OUTPUT CONTROL FOR STRESS PERIOD    5   TIME STEP    8

 -------------------------------------------------------------------------------
                             SWR1 OUTPUT PRINT TIMES
                        STRESS PERIOD    5   TIME STEP     8
 --------------- --------------- --------------- --------------- ---------------
      15360.                                                                    
 -------------------------------------------------------------------------------
 
 SOLVING FOR HEAD 
 INITIAL HNEW IS AN EXACT SOLUTION.

 NO OUTPUT CONTROL FOR STRESS PERIOD    5   TIME STEP    9

 -------------------------------------------------------------------------------
                             SWR1 OUTPUT PRINT TIMES
                        STRESS PERIOD    5   TIME STEP     9
 --------------- --------------- --------------- --------------- ---------------
      15480.                                                                    
 -------------------------------------------------------------------------------
 
 SOLVING FOR HEAD 
 INITIAL HNEW IS AN EXACT SOLUTION.

 NO OUTPUT CONTROL FOR STRESS PERIOD    5   TIME STEP   10

 -------------------------------------------------------------------------------
                             SWR1 OUTPUT PRINT TIMES
                        STRESS PERIOD    5   TIME STEP    10
 --------------- --------------- --------------- --------------- ---------------
      15600.                                                                    
 -------------------------------------------------------------------------------
 
 SOLVING FOR HEAD 
 INITIAL HNEW IS AN EXACT SOLUTION.

 NO OUTPUT CONTROL FOR STRESS PERIOD    5   TIME STEP   11

 -------------------------------------------------------------------------------
                             SWR1 OUTPUT PRINT TIMES
                        STRESS PERIOD    5   TIME STEP    11
 --------------- --------------- --------------- --------------- ---------------
      15720.                                                                    
 -------------------------------------------------------------------------------
 
 SOLVING FOR HEAD 
 INITIAL HNEW IS AN EXACT SOLUTION.

 NO OUTPUT CONTROL FOR STRESS PERIOD    5   TIME STEP   12

 -------------------------------------------------------------------------------
                             SWR1 OUTPUT PRINT TIMES
                        STRESS PERIOD    5   TIME STEP    12
 --------------- --------------- --------------- --------------- ---------------
      15840.                                                                    
 -------------------------------------------------------------------------------
 
 SOLVING FOR HEAD 
 INITIAL HNEW IS AN EXACT SOLUTION.

 NO OUTPUT CONTROL FOR STRESS PERIOD    5   TIME STEP   13

 -------------------------------------------------------------------------------
                             SWR1 OUTPUT PRINT TIMES
                        STRESS PERIOD    5   TIME STEP    13
 --------------- --------------- --------------- --------------- ---------------
      15960.                                                                    
 -------------------------------------------------------------------------------
 
 SOLVING FOR HEAD 
 INITIAL HNEW IS AN EXACT SOLUTION.

 NO OUTPUT CONTROL FOR STRESS PERIOD    5   TIME STEP   14

 -------------------------------------------------------------------------------
                             SWR1 OUTPUT PRINT TIMES
                        STRESS PERIOD    5   TIME STEP    14
 --------------- --------------- --------------- --------------- ---------------
      16080.                                                                    
 -------------------------------------------------------------------------------
 
 SOLVING FOR HEAD 
 INITIAL HNEW IS AN EXACT SOLUTION.

 NO OUTPUT CONTROL FOR STRESS PERIOD    5   TIME STEP   15

 -------------------------------------------------------------------------------
                             SWR1 OUTPUT PRINT TIMES
                        STRESS PERIOD    5   TIME STEP    15
 --------------- --------------- --------------- --------------- ---------------
      16200.                                                                    
 -------------------------------------------------------------------------------
 
 SOLVING FOR HEAD 
 INITIAL HNEW IS AN EXACT SOLUTION.

 NO OUTPUT CONTROL FOR STRESS PERIOD    5   TIME STEP   16

 -------------------------------------------------------------------------------
                             SWR1 OUTPUT PRINT TIMES
                        STRESS PERIOD    5   TIME STEP    16
 --------------- --------------- --------------- --------------- ---------------
      16320.                                                                    
 -------------------------------------------------------------------------------
 
 SOLVING FOR HEAD 
 INITIAL HNEW IS AN EXACT SOLUTION.

 NO OUTPUT CONTROL FOR STRESS PERIOD    5   TIME STEP   17

 -------------------------------------------------------------------------------
                             SWR1 OUTPUT PRINT TIMES
                        STRESS PERIOD    5   TIME STEP    17
 --------------- --------------- --------------- --------------- ---------------
      16440.                                                                    
 -------------------------------------------------------------------------------
 
 SOLVING FOR HEAD 
 INITIAL HNEW IS AN EXACT SOLUTION.

 NO OUTPUT CONTROL FOR STRESS PERIOD    5   TIME STEP   18

 -------------------------------------------------------------------------------
                             SWR1 OUTPUT PRINT TIMES
                        STRESS PERIOD    5   TIME STEP    18
 --------------- --------------- --------------- --------------- ---------------
      16560.                                                                    
 -------------------------------------------------------------------------------
 
 SOLVING FOR HEAD 
 INITIAL HNEW IS AN EXACT SOLUTION.

 NO OUTPUT CONTROL FOR STRESS PERIOD    5   TIME STEP   19

 -------------------------------------------------------------------------------
                             SWR1 OUTPUT PRINT TIMES
                        STRESS PERIOD    5   TIME STEP    19
 --------------- --------------- --------------- --------------- ---------------
      16680.                                                                    
 -------------------------------------------------------------------------------
 
 SOLVING FOR HEAD 
 INITIAL HNEW IS AN EXACT SOLUTION.

 NO OUTPUT CONTROL FOR STRESS PERIOD    5   TIME STEP   20

 -------------------------------------------------------------------------------
                             SWR1 OUTPUT PRINT TIMES
                        STRESS PERIOD    5   TIME STEP    20
 --------------- --------------- --------------- --------------- ---------------
      16800.                                                                    
 -------------------------------------------------------------------------------
 
 SOLVING FOR HEAD 
 INITIAL HNEW IS AN EXACT SOLUTION.

 NO OUTPUT CONTROL FOR STRESS PERIOD    5   TIME STEP   21

 -------------------------------------------------------------------------------
                             SWR1 OUTPUT PRINT TIMES
                        STRESS PERIOD    5   TIME STEP    21
 --------------- --------------- --------------- --------------- ---------------
      16920.                                                                    
 -------------------------------------------------------------------------------
 
 SOLVING FOR HEAD 
 INITIAL HNEW IS AN EXACT SOLUTION.

 NO OUTPUT CONTROL FOR STRESS PERIOD    5   TIME STEP   22

 -------------------------------------------------------------------------------
                             SWR1 OUTPUT PRINT TIMES
                        STRESS PERIOD    5   TIME STEP    22
 --------------- --------------- --------------- --------------- ---------------
      17040.                                                                    
 -------------------------------------------------------------------------------
 
 SOLVING FOR HEAD 
 INITIAL HNEW IS AN EXACT SOLUTION.

 NO OUTPUT CONTROL FOR STRESS PERIOD    5   TIME STEP   23

 -------------------------------------------------------------------------------
                             SWR1 OUTPUT PRINT TIMES
                        STRESS PERIOD    5   TIME STEP    23
 --------------- --------------- --------------- --------------- ---------------
      17160.                                                                    
 -------------------------------------------------------------------------------
 
 SOLVING FOR HEAD 
 INITIAL HNEW IS AN EXACT SOLUTION.

 NO OUTPUT CONTROL FOR STRESS PERIOD    5   TIME STEP   24

 -------------------------------------------------------------------------------
                             SWR1 OUTPUT PRINT TIMES
                        STRESS PERIOD    5   TIME STEP    24
 --------------- --------------- --------------- --------------- ---------------
      17280.                                                                    
 -------------------------------------------------------------------------------
 
 SOLVING FOR HEAD 
 INITIAL HNEW IS AN EXACT SOLUTION.

 NO OUTPUT CONTROL FOR STRESS PERIOD    5   TIME STEP   25

 -------------------------------------------------------------------------------
                             SWR1 OUTPUT PRINT TIMES
                        STRESS PERIOD    5   TIME STEP    25
 --------------- --------------- --------------- --------------- ---------------
      17400.                                                                    
 -------------------------------------------------------------------------------
 
 SOLVING FOR HEAD 
 INITIAL HNEW IS AN EXACT SOLUTION.

 NO OUTPUT CONTROL FOR STRESS PERIOD    5   TIME STEP   26

 -------------------------------------------------------------------------------
                             SWR1 OUTPUT PRINT TIMES
                        STRESS PERIOD    5   TIME STEP    26
 --------------- --------------- --------------- --------------- ---------------
      17520.                                                                    
 -------------------------------------------------------------------------------
 
 SOLVING FOR HEAD 
 INITIAL HNEW IS AN EXACT SOLUTION.

 NO OUTPUT CONTROL FOR STRESS PERIOD    5   TIME STEP   27

 -------------------------------------------------------------------------------
                             SWR1 OUTPUT PRINT TIMES
                        STRESS PERIOD    5   TIME STEP    27
 --------------- --------------- --------------- --------------- ---------------
      17640.                                                                    
 -------------------------------------------------------------------------------
 
 SOLVING FOR HEAD 
 INITIAL HNEW IS AN EXACT SOLUTION.

 NO OUTPUT CONTROL FOR STRESS PERIOD    5   TIME STEP   28

 -------------------------------------------------------------------------------
                             SWR1 OUTPUT PRINT TIMES
                        STRESS PERIOD    5   TIME STEP    28
 --------------- --------------- --------------- --------------- ---------------
      17760.                                                                    
 -------------------------------------------------------------------------------
 
 SOLVING FOR HEAD 
 INITIAL HNEW IS AN EXACT SOLUTION.

 NO OUTPUT CONTROL FOR STRESS PERIOD    5   TIME STEP   29

 -------------------------------------------------------------------------------
                             SWR1 OUTPUT PRINT TIMES
                        STRESS PERIOD    5   TIME STEP    29
 --------------- --------------- --------------- --------------- ---------------
      17880.                                                                    
 -------------------------------------------------------------------------------
 
 SOLVING FOR HEAD 
 INITIAL HNEW IS AN EXACT SOLUTION.

 NO OUTPUT CONTROL FOR STRESS PERIOD    5   TIME STEP   30

 -------------------------------------------------------------------------------
                             SWR1 OUTPUT PRINT TIMES
                        STRESS PERIOD    5   TIME STEP    30
 --------------- --------------- --------------- --------------- ---------------
      18000.                                                                    
 -------------------------------------------------------------------------------


                    VOLUMETRIC SURFACE WATER BUDGET FOR ENTIRE MODEL
                    AT END OF TIME STEP    30 IN STRESS PERIOD    5
  -----------------------------------------------------------------------------------

        CUMULATIVE VOLUMES      L**3       RATES FOR THIS TIME STEP      L**3/T
        ------------------                 ------------------------

              IN:                                      IN:
              ---                                      ---
          LATERAL FLOW  =         381.8036         LATERAL FLOW  =       8.5115E-02
         UNSAT. RUNOFF  =           0.0000        UNSAT. RUNOFF  =           0.0000
              RAINFALL  =         555.3569             RAINFALL  =           0.1238
           EVAPORATION  =           0.0000          EVAPORATION  =           0.0000
         REACH-AQ FLOW  =           0.0000        REACH-AQ FLOW  =           0.0000
         EXTERNAL FLOW  =           0.0000        EXTERNAL FLOW  =           0.0000
         BOUNDARY FLOW  =           0.0000        BOUNDARY FLOW  =           0.0000
         CONSTANT FLOW  =           0.0000        CONSTANT FLOW  =           0.0000
               STORAGE  =       10358.9854              STORAGE  =           0.5112

               TOTAL IN =       11296.1455              TOTAL IN =           0.7201

             OUT:                                     OUT:
             ----                                     ----
          LATERAL FLOW  =           0.0000         LATERAL FLOW  =           0.0000
         UNSAT. RUNOFF  =           0.0000        UNSAT. RUNOFF  =           0.0000
              RAINFALL  =           0.0000             RAINFALL  =           0.0000
           EVAPORATION  =           0.0000          EVAPORATION  =           0.0000
         REACH-AQ FLOW  =           0.0000        REACH-AQ FLOW  =           0.0000
         EXTERNAL FLOW  =           0.0000        EXTERNAL FLOW  =           0.0000
         BOUNDARY FLOW  =           0.0000        BOUNDARY FLOW  =           0.0000
         CONSTANT FLOW  =       10743.7637        CONSTANT FLOW  =           0.5969
               STORAGE  =         552.3622              STORAGE  =           0.1232

              TOTAL OUT =       11296.1260             TOTAL OUT =           0.7201

               IN - OUT =       1.9531E-02              IN - OUT =       2.9802E-07

    PERCENT DISCREPANCY =           0.00     PERCENT DISCREPANCY =           0.00

1
  VOLUMETRIC BUDGET FOR ENTIRE MODEL AT END OF TIME STEP   30, STRESS PERIOD   5
  ------------------------------------------------------------------------------

     CUMULATIVE VOLUMES      L**3       RATES FOR THIS TIME STEP      L**3/T
     ------------------                 ------------------------

           IN:                                      IN:
           ---                                      ---
             STORAGE =           0.0000               STORAGE =           0.0000
       CONSTANT HEAD =           0.0000         CONSTANT HEAD =           0.0000
         SWR LEAKAGE =           0.0000           SWR LEAKAGE =           0.0000
            SWR GWET =           0.0000              SWR GWET =           0.0000

            TOTAL IN =           0.0000              TOTAL IN =           0.0000

          OUT:                                     OUT:
          ----                                     ----
             STORAGE =           0.0000               STORAGE =           0.0000
       CONSTANT HEAD =           0.0000         CONSTANT HEAD =           0.0000
         SWR LEAKAGE =           0.0000           SWR LEAKAGE =           0.0000
            SWR GWET =           0.0000              SWR GWET =           0.0000

           TOTAL OUT =           0.0000             TOTAL OUT =           0.0000

            IN - OUT =           0.0000              IN - OUT =           0.0000

 PERCENT DISCREPANCY =           0.00     PERCENT DISCREPANCY =           0.00






         TIME SUMMARY AT END OF TIME STEP   30 IN STRESS PERIOD    5
                    SECONDS     MINUTES      HOURS       DAYS        YEARS
                    -----------------------------------------------------------
   TIME STEP LENGTH  120.00      2.0000     3.33333E-02 1.38889E-03 3.80257E-06
 STRESS PERIOD TIME  3600.0      60.000      1.0000     4.16667E-02 1.14077E-04
         TOTAL TIME  18000.      300.00      5.0000     0.20833     5.70386E-04
1
1
                            STRESS PERIOD NO.    6, LENGTH =   3600.000    
                            -----------------------------------------------

                              NUMBER OF TIME STEPS =    30

                               MULTIPLIER FOR DELT =     1.000

                            INITIAL TIME STEP SIZE =   120.0000    

 ...READING SWR1 PROCESS DATASET 5

 ...READING SWR1 PROCESS DATASET 7B



                   2D RAINFALL DATA
 READING ON UNIT   61 WITH FORMAT: (11E12.4)           

           1          2          3          4          5          6          7          8          9         10         11
 .........................................................................................................................
   1    0.00       0.00       0.00       0.00       0.00       0.00       0.00       0.00       0.00       0.00       0.00    
   2    0.00       0.00       0.00       0.00       0.00       0.00       0.00       0.00       0.00       0.00       0.00    
   3    0.00       0.00       0.00       0.00       0.00       0.00       0.00       0.00       0.00       0.00       0.00    
   4    0.00       0.00       0.00       0.00      1.250E-07  1.250E-07  1.250E-07   0.00       0.00       0.00       0.00    
   5    0.00       0.00       0.00       0.00      1.250E-07  1.250E-07  1.250E-07   0.00       0.00       0.00       0.00    
   6    0.00       0.00       0.00      1.250E-07  1.250E-07  1.250E-07  1.250E-07   0.00       0.00       0.00       0.00    
   7    0.00       0.00       0.00       0.00      1.250E-07  1.250E-07  1.250E-07   0.00       0.00       0.00       0.00    
   8    0.00       0.00       0.00       0.00      1.250E-07  1.250E-07  1.250E-07   0.00       0.00       0.00       0.00    
   9    0.00       0.00       0.00       0.00       0.00       0.00       0.00       0.00       0.00       0.00       0.00    
  10    0.00       0.00       0.00       0.00       0.00       0.00       0.00       0.00       0.00       0.00       0.00    
  11    0.00       0.00       0.00       0.00       0.00       0.00       0.00       0.00       0.00       0.00       0.00    

 ...READING SWR1 PROCESS DATASET 9B



             2D LATERAL INFLOW DATA
 READING ON UNIT   61 WITH FORMAT: (11E12.4)           

           1          2          3          4          5          6          7          8          9         10         11
 .........................................................................................................................
   1   3.126E-02   0.00       0.00       0.00       0.00       0.00       0.00       0.00       0.00       0.00       0.00    
   2   3.126E-02   0.00       0.00       0.00       0.00       0.00       0.00       0.00       0.00       0.00       0.00    
   3   3.126E-02   0.00       0.00       0.00       0.00       0.00       0.00       0.00       0.00       0.00       0.00    
   4   3.126E-02   0.00       0.00       0.00       0.00       0.00       0.00       0.00       0.00       0.00       0.00    
   5   3.126E-02   0.00       0.00       0.00       0.00       0.00       0.00       0.00       0.00       0.00       0.00    
   6   3.126E-02   0.00       0.00       0.00       0.00       0.00       0.00       0.00       0.00       0.00       0.00    
   7   3.126E-02   0.00       0.00       0.00       0.00       0.00       0.00       0.00       0.00       0.00       0.00    
   8   3.126E-02   0.00       0.00       0.00       0.00       0.00       0.00       0.00       0.00       0.00       0.00    
   9   3.126E-02   0.00       0.00       0.00       0.00       0.00       0.00       0.00       0.00       0.00       0.00    
  10   3.126E-02   0.00       0.00       0.00       0.00       0.00       0.00       0.00       0.00       0.00       0.00    
  11   3.126E-02   0.00       0.00       0.00       0.00       0.00       0.00       0.00       0.00       0.00       0.00    
 
 SOLVING FOR HEAD 
 INITIAL HNEW IS AN EXACT SOLUTION.

 OUTPUT CONTROL FOR STRESS PERIOD    6   TIME STEP    1
    SAVE BUDGET

 -------------------------------------------------------------------------------
                             SWR1 OUTPUT PRINT TIMES
                        STRESS PERIOD    6   TIME STEP     1
 --------------- --------------- --------------- --------------- ---------------
      18120.                                                                    
 -------------------------------------------------------------------------------
 
 SOLVING FOR HEAD 
 INITIAL HNEW IS AN EXACT SOLUTION.

 NO OUTPUT CONTROL FOR STRESS PERIOD    6   TIME STEP    2

 -------------------------------------------------------------------------------
                             SWR1 OUTPUT PRINT TIMES
                        STRESS PERIOD    6   TIME STEP     2
 --------------- --------------- --------------- --------------- ---------------
      18240.                                                                    
 -------------------------------------------------------------------------------
 
 SOLVING FOR HEAD 
 INITIAL HNEW IS AN EXACT SOLUTION.

 NO OUTPUT CONTROL FOR STRESS PERIOD    6   TIME STEP    3

 -------------------------------------------------------------------------------
                             SWR1 OUTPUT PRINT TIMES
                        STRESS PERIOD    6   TIME STEP     3
 --------------- --------------- --------------- --------------- ---------------
      18360.                                                                    
 -------------------------------------------------------------------------------
 
 SOLVING FOR HEAD 
 INITIAL HNEW IS AN EXACT SOLUTION.

 NO OUTPUT CONTROL FOR STRESS PERIOD    6   TIME STEP    4

 -------------------------------------------------------------------------------
                             SWR1 OUTPUT PRINT TIMES
                        STRESS PERIOD    6   TIME STEP     4
 --------------- --------------- --------------- --------------- ---------------
      18480.                                                                    
 -------------------------------------------------------------------------------
 
 SOLVING FOR HEAD 
 INITIAL HNEW IS AN EXACT SOLUTION.

 NO OUTPUT CONTROL FOR STRESS PERIOD    6   TIME STEP    5

 -------------------------------------------------------------------------------
                             SWR1 OUTPUT PRINT TIMES
                        STRESS PERIOD    6   TIME STEP     5
 --------------- --------------- --------------- --------------- ---------------
      18600.                                                                    
 -------------------------------------------------------------------------------
 
 SOLVING FOR HEAD 
 INITIAL HNEW IS AN EXACT SOLUTION.

 NO OUTPUT CONTROL FOR STRESS PERIOD    6   TIME STEP    6

 -------------------------------------------------------------------------------
                             SWR1 OUTPUT PRINT TIMES
                        STRESS PERIOD    6   TIME STEP     6
 --------------- --------------- --------------- --------------- ---------------
      18720.                                                                    
 -------------------------------------------------------------------------------
 
 SOLVING FOR HEAD 
 INITIAL HNEW IS AN EXACT SOLUTION.

 NO OUTPUT CONTROL FOR STRESS PERIOD    6   TIME STEP    7

 -------------------------------------------------------------------------------
                             SWR1 OUTPUT PRINT TIMES
                        STRESS PERIOD    6   TIME STEP     7
 --------------- --------------- --------------- --------------- ---------------
      18840.                                                                    
 -------------------------------------------------------------------------------
 
 SOLVING FOR HEAD 
 INITIAL HNEW IS AN EXACT SOLUTION.

 NO OUTPUT CONTROL FOR STRESS PERIOD    6   TIME STEP    8

 -------------------------------------------------------------------------------
                             SWR1 OUTPUT PRINT TIMES
                        STRESS PERIOD    6   TIME STEP     8
 --------------- --------------- --------------- --------------- ---------------
      18960.                                                                    
 -------------------------------------------------------------------------------
 
 SOLVING FOR HEAD 
 INITIAL HNEW IS AN EXACT SOLUTION.

 NO OUTPUT CONTROL FOR STRESS PERIOD    6   TIME STEP    9

 -------------------------------------------------------------------------------
                             SWR1 OUTPUT PRINT TIMES
                        STRESS PERIOD    6   TIME STEP     9
 --------------- --------------- --------------- --------------- ---------------
      19080.                                                                    
 -------------------------------------------------------------------------------
 
 SOLVING FOR HEAD 
 INITIAL HNEW IS AN EXACT SOLUTION.

 NO OUTPUT CONTROL FOR STRESS PERIOD    6   TIME STEP   10

 -------------------------------------------------------------------------------
                             SWR1 OUTPUT PRINT TIMES
                        STRESS PERIOD    6   TIME STEP    10
 --------------- --------------- --------------- --------------- ---------------
      19200.                                                                    
 -------------------------------------------------------------------------------
 
 SOLVING FOR HEAD 
 INITIAL HNEW IS AN EXACT SOLUTION.

 NO OUTPUT CONTROL FOR STRESS PERIOD    6   TIME STEP   11

 -------------------------------------------------------------------------------
                             SWR1 OUTPUT PRINT TIMES
                        STRESS PERIOD    6   TIME STEP    11
 --------------- --------------- --------------- --------------- ---------------
      19320.                                                                    
 -------------------------------------------------------------------------------
 
 SOLVING FOR HEAD 
 INITIAL HNEW IS AN EXACT SOLUTION.

 NO OUTPUT CONTROL FOR STRESS PERIOD    6   TIME STEP   12

 -------------------------------------------------------------------------------
                             SWR1 OUTPUT PRINT TIMES
                        STRESS PERIOD    6   TIME STEP    12
 --------------- --------------- --------------- --------------- ---------------
      19440.                                                                    
 -------------------------------------------------------------------------------
 
 SOLVING FOR HEAD 
 INITIAL HNEW IS AN EXACT SOLUTION.

 NO OUTPUT CONTROL FOR STRESS PERIOD    6   TIME STEP   13

 -------------------------------------------------------------------------------
                             SWR1 OUTPUT PRINT TIMES
                        STRESS PERIOD    6   TIME STEP    13
 --------------- --------------- --------------- --------------- ---------------
      19560.                                                                    
 -------------------------------------------------------------------------------
 
 SOLVING FOR HEAD 
 INITIAL HNEW IS AN EXACT SOLUTION.

 NO OUTPUT CONTROL FOR STRESS PERIOD    6   TIME STEP   14

 -------------------------------------------------------------------------------
                             SWR1 OUTPUT PRINT TIMES
                        STRESS PERIOD    6   TIME STEP    14
 --------------- --------------- --------------- --------------- ---------------
      19680.                                                                    
 -------------------------------------------------------------------------------
 
 SOLVING FOR HEAD 
 INITIAL HNEW IS AN EXACT SOLUTION.

 NO OUTPUT CONTROL FOR STRESS PERIOD    6   TIME STEP   15

 -------------------------------------------------------------------------------
                             SWR1 OUTPUT PRINT TIMES
                        STRESS PERIOD    6   TIME STEP    15
 --------------- --------------- --------------- --------------- ---------------
      19800.                                                                    
 -------------------------------------------------------------------------------
 
 SOLVING FOR HEAD 
 INITIAL HNEW IS AN EXACT SOLUTION.

 NO OUTPUT CONTROL FOR STRESS PERIOD    6   TIME STEP   16

 -------------------------------------------------------------------------------
                             SWR1 OUTPUT PRINT TIMES
                        STRESS PERIOD    6   TIME STEP    16
 --------------- --------------- --------------- --------------- ---------------
      19920.                                                                    
 -------------------------------------------------------------------------------
 
 SOLVING FOR HEAD 
 INITIAL HNEW IS AN EXACT SOLUTION.

 NO OUTPUT CONTROL FOR STRESS PERIOD    6   TIME STEP   17

 -------------------------------------------------------------------------------
                             SWR1 OUTPUT PRINT TIMES
                        STRESS PERIOD    6   TIME STEP    17
 --------------- --------------- --------------- --------------- ---------------
      20040.                                                                    
 -------------------------------------------------------------------------------
 
 SOLVING FOR HEAD 
 INITIAL HNEW IS AN EXACT SOLUTION.

 NO OUTPUT CONTROL FOR STRESS PERIOD    6   TIME STEP   18

 -------------------------------------------------------------------------------
                             SWR1 OUTPUT PRINT TIMES
                        STRESS PERIOD    6   TIME STEP    18
 --------------- --------------- --------------- --------------- ---------------
      20160.                                                                    
 -------------------------------------------------------------------------------
 
 SOLVING FOR HEAD 
 INITIAL HNEW IS AN EXACT SOLUTION.

 NO OUTPUT CONTROL FOR STRESS PERIOD    6   TIME STEP   19

 -------------------------------------------------------------------------------
                             SWR1 OUTPUT PRINT TIMES
                        STRESS PERIOD    6   TIME STEP    19
 --------------- --------------- --------------- --------------- ---------------
      20280.                                                                    
 -------------------------------------------------------------------------------
 
 SOLVING FOR HEAD 
 INITIAL HNEW IS AN EXACT SOLUTION.

 NO OUTPUT CONTROL FOR STRESS PERIOD    6   TIME STEP   20

 -------------------------------------------------------------------------------
                             SWR1 OUTPUT PRINT TIMES
                        STRESS PERIOD    6   TIME STEP    20
 --------------- --------------- --------------- --------------- ---------------
      20400.                                                                    
 -------------------------------------------------------------------------------
 
 SOLVING FOR HEAD 
 INITIAL HNEW IS AN EXACT SOLUTION.

 NO OUTPUT CONTROL FOR STRESS PERIOD    6   TIME STEP   21

 -------------------------------------------------------------------------------
                             SWR1 OUTPUT PRINT TIMES
                        STRESS PERIOD    6   TIME STEP    21
 --------------- --------------- --------------- --------------- ---------------
      20520.                                                                    
 -------------------------------------------------------------------------------
 
 SOLVING FOR HEAD 
 INITIAL HNEW IS AN EXACT SOLUTION.

 NO OUTPUT CONTROL FOR STRESS PERIOD    6   TIME STEP   22

 -------------------------------------------------------------------------------
                             SWR1 OUTPUT PRINT TIMES
                        STRESS PERIOD    6   TIME STEP    22
 --------------- --------------- --------------- --------------- ---------------
      20640.                                                                    
 -------------------------------------------------------------------------------
 
 SOLVING FOR HEAD 
 INITIAL HNEW IS AN EXACT SOLUTION.

 NO OUTPUT CONTROL FOR STRESS PERIOD    6   TIME STEP   23

 -------------------------------------------------------------------------------
                             SWR1 OUTPUT PRINT TIMES
                        STRESS PERIOD    6   TIME STEP    23
 --------------- --------------- --------------- --------------- ---------------
      20760.                                                                    
 -------------------------------------------------------------------------------
 
 SOLVING FOR HEAD 
 INITIAL HNEW IS AN EXACT SOLUTION.

 NO OUTPUT CONTROL FOR STRESS PERIOD    6   TIME STEP   24

 -------------------------------------------------------------------------------
                             SWR1 OUTPUT PRINT TIMES
                        STRESS PERIOD    6   TIME STEP    24
 --------------- --------------- --------------- --------------- ---------------
      20880.                                                                    
 -------------------------------------------------------------------------------
 
 SOLVING FOR HEAD 
 INITIAL HNEW IS AN EXACT SOLUTION.

 NO OUTPUT CONTROL FOR STRESS PERIOD    6   TIME STEP   25

 -------------------------------------------------------------------------------
                             SWR1 OUTPUT PRINT TIMES
                        STRESS PERIOD    6   TIME STEP    25
 --------------- --------------- --------------- --------------- ---------------
      21000.                                                                    
 -------------------------------------------------------------------------------
 
 SOLVING FOR HEAD 
 INITIAL HNEW IS AN EXACT SOLUTION.

 NO OUTPUT CONTROL FOR STRESS PERIOD    6   TIME STEP   26

 -------------------------------------------------------------------------------
                             SWR1 OUTPUT PRINT TIMES
                        STRESS PERIOD    6   TIME STEP    26
 --------------- --------------- --------------- --------------- ---------------
      21120.                                                                    
 -------------------------------------------------------------------------------
 
 SOLVING FOR HEAD 
 INITIAL HNEW IS AN EXACT SOLUTION.

 NO OUTPUT CONTROL FOR STRESS PERIOD    6   TIME STEP   27

 -------------------------------------------------------------------------------
                             SWR1 OUTPUT PRINT TIMES
                        STRESS PERIOD    6   TIME STEP    27
 --------------- --------------- --------------- --------------- ---------------
      21240.                                                                    
 -------------------------------------------------------------------------------
 
 SOLVING FOR HEAD 
 INITIAL HNEW IS AN EXACT SOLUTION.

 NO OUTPUT CONTROL FOR STRESS PERIOD    6   TIME STEP   28

 -------------------------------------------------------------------------------
                             SWR1 OUTPUT PRINT TIMES
                        STRESS PERIOD    6   TIME STEP    28
 --------------- --------------- --------------- --------------- ---------------
      21360.                                                                    
 -------------------------------------------------------------------------------
 
 SOLVING FOR HEAD 
 INITIAL HNEW IS AN EXACT SOLUTION.

 NO OUTPUT CONTROL FOR STRESS PERIOD    6   TIME STEP   29

 -------------------------------------------------------------------------------
                             SWR1 OUTPUT PRINT TIMES
                        STRESS PERIOD    6   TIME STEP    29
 --------------- --------------- --------------- --------------- ---------------
      21480.                                                                    
 -------------------------------------------------------------------------------
 
 SOLVING FOR HEAD 
 INITIAL HNEW IS AN EXACT SOLUTION.

 NO OUTPUT CONTROL FOR STRESS PERIOD    6   TIME STEP   30

 -------------------------------------------------------------------------------
                             SWR1 OUTPUT PRINT TIMES
                        STRESS PERIOD    6   TIME STEP    30
 --------------- --------------- --------------- --------------- ---------------
      21600.                                                                    
 -------------------------------------------------------------------------------


                    VOLUMETRIC SURFACE WATER BUDGET FOR ENTIRE MODEL
                    AT END OF TIME STEP    30 IN STRESS PERIOD    6
  -----------------------------------------------------------------------------------

        CUMULATIVE VOLUMES      L**3       RATES FOR THIS TIME STEP      L**3/T
        ------------------                 ------------------------

              IN:                                      IN:
              ---                                      ---
          LATERAL FLOW  =        1619.7795         LATERAL FLOW  =           0.3439
         UNSAT. RUNOFF  =           0.0000        UNSAT. RUNOFF  =           0.0000
              RAINFALL  =        2356.0771             RAINFALL  =           0.5002
           EVAPORATION  =           0.0000          EVAPORATION  =           0.0000
         REACH-AQ FLOW  =           0.0000        REACH-AQ FLOW  =           0.0000
         EXTERNAL FLOW  =           0.0000        EXTERNAL FLOW  =           0.0000
         BOUNDARY FLOW  =           0.0000        BOUNDARY FLOW  =           0.0000
         CONSTANT FLOW  =           0.0000        CONSTANT FLOW  =           0.0000
               STORAGE  =       11268.1074              STORAGE  =           0.2526

               TOTAL IN =       15243.9639              TOTAL IN =           1.0967

             OUT:                                     OUT:
             ----                                     ----
          LATERAL FLOW  =           0.0000         LATERAL FLOW  =           0.0000
         UNSAT. RUNOFF  =           0.0000        UNSAT. RUNOFF  =           0.0000
              RAINFALL  =           0.0000             RAINFALL  =           0.0000
           EVAPORATION  =           0.0000          EVAPORATION  =           0.0000
         REACH-AQ FLOW  =           0.0000        REACH-AQ FLOW  =           0.0000
         EXTERNAL FLOW  =           0.0000        EXTERNAL FLOW  =           0.0000
         BOUNDARY FLOW  =           0.0000        BOUNDARY FLOW  =           0.0000
         CONSTANT FLOW  =       12892.5137        CONSTANT FLOW  =           0.5969
               STORAGE  =        2351.4202              STORAGE  =           0.4998

              TOTAL OUT =       15243.9336             TOTAL OUT =           1.0967

               IN - OUT =       3.0273E-02              IN - OUT =       4.7684E-07

    PERCENT DISCREPANCY =           0.00     PERCENT DISCREPANCY =           0.00

1
  VOLUMETRIC BUDGET FOR ENTIRE MODEL AT END OF TIME STEP   30, STRESS PERIOD   6
  ------------------------------------------------------------------------------

     CUMULATIVE VOLUMES      L**3       RATES FOR THIS TIME STEP      L**3/T
     ------------------                 ------------------------

           IN:                                      IN:
           ---                                      ---
             STORAGE =           0.0000               STORAGE =           0.0000
       CONSTANT HEAD =           0.0000         CONSTANT HEAD =           0.0000
         SWR LEAKAGE =           0.0000           SWR LEAKAGE =           0.0000
            SWR GWET =           0.0000              SWR GWET =           0.0000

            TOTAL IN =           0.0000              TOTAL IN =           0.0000

          OUT:                                     OUT:
          ----                                     ----
             STORAGE =           0.0000               STORAGE =           0.0000
       CONSTANT HEAD =           0.0000         CONSTANT HEAD =           0.0000
         SWR LEAKAGE =           0.0000           SWR LEAKAGE =           0.0000
            SWR GWET =           0.0000              SWR GWET =           0.0000

           TOTAL OUT =           0.0000             TOTAL OUT =           0.0000

            IN - OUT =           0.0000              IN - OUT =           0.0000

 PERCENT DISCREPANCY =           0.00     PERCENT DISCREPANCY =           0.00






         TIME SUMMARY AT END OF TIME STEP   30 IN STRESS PERIOD    6
                    SECONDS     MINUTES      HOURS       DAYS        YEARS
                    -----------------------------------------------------------
   TIME STEP LENGTH  120.00      2.0000     3.33333E-02 1.38889E-03 3.80257E-06
 STRESS PERIOD TIME  3600.0      60.000      1.0000     4.16667E-02 1.14077E-04
         TOTAL TIME  21600.      360.00      6.0000     0.25000     6.84463E-04
1
1
                            STRESS PERIOD NO.    7, LENGTH =   3600.000    
                            -----------------------------------------------

                              NUMBER OF TIME STEPS =    30

                               MULTIPLIER FOR DELT =     1.000

                            INITIAL TIME STEP SIZE =   120.0000    

 ...READING SWR1 PROCESS DATASET 5

 ...READING SWR1 PROCESS DATASET 7B



                   2D RAINFALL DATA
 READING ON UNIT   61 WITH FORMAT: (11E12.4)           

           1          2          3          4          5          6          7          8          9         10         11
 .........................................................................................................................
   1    0.00       0.00       0.00       0.00       0.00       0.00       0.00       0.00       0.00       0.00       0.00    
   2    0.00       0.00       0.00       0.00       0.00       0.00       0.00       0.00       0.00       0.00       0.00    
   3    0.00       0.00       0.00       0.00       0.00       0.00       0.00       0.00       0.00       0.00       0.00    
   4    0.00       0.00       0.00       0.00      4.193E-07  4.193E-07  4.193E-07   0.00       0.00       0.00       0.00    
   5    0.00       0.00       0.00       0.00      4.193E-07  4.193E-07  4.193E-07   0.00       0.00       0.00       0.00    
   6    0.00       0.00       0.00      4.193E-07  4.193E-07  4.193E-07  4.193E-07   0.00       0.00       0.00       0.00    
   7    0.00       0.00       0.00       0.00      4.193E-07  4.193E-07  4.193E-07   0.00       0.00       0.00       0.00    
   8    0.00       0.00       0.00       0.00      4.193E-07  4.193E-07  4.193E-07   0.00       0.00       0.00       0.00    
   9    0.00       0.00       0.00       0.00       0.00       0.00       0.00       0.00       0.00       0.00       0.00    
  10    0.00       0.00       0.00       0.00       0.00       0.00       0.00       0.00       0.00       0.00       0.00    
  11    0.00       0.00       0.00       0.00       0.00       0.00       0.00       0.00       0.00       0.00       0.00    

 ...READING SWR1 PROCESS DATASET 9B



             2D LATERAL INFLOW DATA
 READING ON UNIT   61 WITH FORMAT: (11E12.4)           

           1          2          3          4          5          6          7          8          9         10         11
 .........................................................................................................................
   1   0.105       0.00       0.00       0.00       0.00       0.00       0.00       0.00       0.00       0.00       0.00    
   2   0.105       0.00       0.00       0.00       0.00       0.00       0.00       0.00       0.00       0.00       0.00    
   3   0.105       0.00       0.00       0.00       0.00       0.00       0.00       0.00       0.00       0.00       0.00    
   4   0.105       0.00       0.00       0.00       0.00       0.00       0.00       0.00       0.00       0.00       0.00    
   5   0.105       0.00       0.00       0.00       0.00       0.00       0.00       0.00       0.00       0.00       0.00    
   6   0.105       0.00       0.00       0.00       0.00       0.00       0.00       0.00       0.00       0.00       0.00    
   7   0.105       0.00       0.00       0.00       0.00       0.00       0.00       0.00       0.00       0.00       0.00    
   8   0.105       0.00       0.00       0.00       0.00       0.00       0.00       0.00       0.00       0.00       0.00    
   9   0.105       0.00       0.00       0.00       0.00       0.00       0.00       0.00       0.00       0.00       0.00    
  10   0.105       0.00       0.00       0.00       0.00       0.00       0.00       0.00       0.00       0.00       0.00    
  11   0.105       0.00       0.00       0.00       0.00       0.00       0.00       0.00       0.00       0.00       0.00    
 
 SOLVING FOR HEAD 
 INITIAL HNEW IS AN EXACT SOLUTION.

 OUTPUT CONTROL FOR STRESS PERIOD    7   TIME STEP    1
    SAVE BUDGET

 -------------------------------------------------------------------------------
                             SWR1 OUTPUT PRINT TIMES
                        STRESS PERIOD    7   TIME STEP     1
 --------------- --------------- --------------- --------------- ---------------
      21720.                                                                    
 -------------------------------------------------------------------------------
 
 SOLVING FOR HEAD 
 INITIAL HNEW IS AN EXACT SOLUTION.

 NO OUTPUT CONTROL FOR STRESS PERIOD    7   TIME STEP    2

 -------------------------------------------------------------------------------
                             SWR1 OUTPUT PRINT TIMES
                        STRESS PERIOD    7   TIME STEP     2
 --------------- --------------- --------------- --------------- ---------------
      21840.                                                                    
 -------------------------------------------------------------------------------
 
 SOLVING FOR HEAD 
 INITIAL HNEW IS AN EXACT SOLUTION.

 NO OUTPUT CONTROL FOR STRESS PERIOD    7   TIME STEP    3

 -------------------------------------------------------------------------------
                             SWR1 OUTPUT PRINT TIMES
                        STRESS PERIOD    7   TIME STEP     3
 --------------- --------------- --------------- --------------- ---------------
      21960.                                                                    
 -------------------------------------------------------------------------------
 
 SOLVING FOR HEAD 
 INITIAL HNEW IS AN EXACT SOLUTION.

 NO OUTPUT CONTROL FOR STRESS PERIOD    7   TIME STEP    4

 -------------------------------------------------------------------------------
                             SWR1 OUTPUT PRINT TIMES
                        STRESS PERIOD    7   TIME STEP     4
 --------------- --------------- --------------- --------------- ---------------
      22080.                                                                    
 -------------------------------------------------------------------------------
 
 SOLVING FOR HEAD 
 INITIAL HNEW IS AN EXACT SOLUTION.

 NO OUTPUT CONTROL FOR STRESS PERIOD    7   TIME STEP    5

 -------------------------------------------------------------------------------
                             SWR1 OUTPUT PRINT TIMES
                        STRESS PERIOD    7   TIME STEP     5
 --------------- --------------- --------------- --------------- ---------------
      22200.                                                                    
 -------------------------------------------------------------------------------
 
 SOLVING FOR HEAD 
 INITIAL HNEW IS AN EXACT SOLUTION.

 NO OUTPUT CONTROL FOR STRESS PERIOD    7   TIME STEP    6

 -------------------------------------------------------------------------------
                             SWR1 OUTPUT PRINT TIMES
                        STRESS PERIOD    7   TIME STEP     6
 --------------- --------------- --------------- --------------- ---------------
      22320.                                                                    
 -------------------------------------------------------------------------------
 
 SOLVING FOR HEAD 
 INITIAL HNEW IS AN EXACT SOLUTION.

 NO OUTPUT CONTROL FOR STRESS PERIOD    7   TIME STEP    7

 -------------------------------------------------------------------------------
                             SWR1 OUTPUT PRINT TIMES
                        STRESS PERIOD    7   TIME STEP     7
 --------------- --------------- --------------- --------------- ---------------
      22440.                                                                    
 -------------------------------------------------------------------------------
 
 SOLVING FOR HEAD 
 INITIAL HNEW IS AN EXACT SOLUTION.

 NO OUTPUT CONTROL FOR STRESS PERIOD    7   TIME STEP    8

 -------------------------------------------------------------------------------
                             SWR1 OUTPUT PRINT TIMES
                        STRESS PERIOD    7   TIME STEP     8
 --------------- --------------- --------------- --------------- ---------------
      22560.                                                                    
 -------------------------------------------------------------------------------
 
 SOLVING FOR HEAD 
 INITIAL HNEW IS AN EXACT SOLUTION.

 NO OUTPUT CONTROL FOR STRESS PERIOD    7   TIME STEP    9

 -------------------------------------------------------------------------------
                             SWR1 OUTPUT PRINT TIMES
                        STRESS PERIOD    7   TIME STEP     9
 --------------- --------------- --------------- --------------- ---------------
      22680.                                                                    
 -------------------------------------------------------------------------------
 
 SOLVING FOR HEAD 
 INITIAL HNEW IS AN EXACT SOLUTION.

 NO OUTPUT CONTROL FOR STRESS PERIOD    7   TIME STEP   10

 -------------------------------------------------------------------------------
                             SWR1 OUTPUT PRINT TIMES
                        STRESS PERIOD    7   TIME STEP    10
 --------------- --------------- --------------- --------------- ---------------
      22800.                                                                    
 -------------------------------------------------------------------------------
 
 SOLVING FOR HEAD 
 INITIAL HNEW IS AN EXACT SOLUTION.

 NO OUTPUT CONTROL FOR STRESS PERIOD    7   TIME STEP   11

 -------------------------------------------------------------------------------
                             SWR1 OUTPUT PRINT TIMES
                        STRESS PERIOD    7   TIME STEP    11
 --------------- --------------- --------------- --------------- ---------------
      22920.                                                                    
 -------------------------------------------------------------------------------
 
 SOLVING FOR HEAD 
 INITIAL HNEW IS AN EXACT SOLUTION.

 NO OUTPUT CONTROL FOR STRESS PERIOD    7   TIME STEP   12

 -------------------------------------------------------------------------------
                             SWR1 OUTPUT PRINT TIMES
                        STRESS PERIOD    7   TIME STEP    12
 --------------- --------------- --------------- --------------- ---------------
      23040.                                                                    
 -------------------------------------------------------------------------------
 
 SOLVING FOR HEAD 
 INITIAL HNEW IS AN EXACT SOLUTION.

 NO OUTPUT CONTROL FOR STRESS PERIOD    7   TIME STEP   13

 -------------------------------------------------------------------------------
                             SWR1 OUTPUT PRINT TIMES
                        STRESS PERIOD    7   TIME STEP    13
 --------------- --------------- --------------- --------------- ---------------
      23160.                                                                    
 -------------------------------------------------------------------------------
 
 SOLVING FOR HEAD 
 INITIAL HNEW IS AN EXACT SOLUTION.

 NO OUTPUT CONTROL FOR STRESS PERIOD    7   TIME STEP   14

 -------------------------------------------------------------------------------
                             SWR1 OUTPUT PRINT TIMES
                        STRESS PERIOD    7   TIME STEP    14
 --------------- --------------- --------------- --------------- ---------------
      23280.                                                                    
 -------------------------------------------------------------------------------
 
 SOLVING FOR HEAD 
 INITIAL HNEW IS AN EXACT SOLUTION.

 NO OUTPUT CONTROL FOR STRESS PERIOD    7   TIME STEP   15

 -------------------------------------------------------------------------------
                             SWR1 OUTPUT PRINT TIMES
                        STRESS PERIOD    7   TIME STEP    15
 --------------- --------------- --------------- --------------- ---------------
      23400.                                                                    
 -------------------------------------------------------------------------------
 
 SOLVING FOR HEAD 
 INITIAL HNEW IS AN EXACT SOLUTION.

 NO OUTPUT CONTROL FOR STRESS PERIOD    7   TIME STEP   16

 -------------------------------------------------------------------------------
                             SWR1 OUTPUT PRINT TIMES
                        STRESS PERIOD    7   TIME STEP    16
 --------------- --------------- --------------- --------------- ---------------
      23520.                                                                    
 -------------------------------------------------------------------------------
 
 SOLVING FOR HEAD 
 INITIAL HNEW IS AN EXACT SOLUTION.

 NO OUTPUT CONTROL FOR STRESS PERIOD    7   TIME STEP   17

 -------------------------------------------------------------------------------
                             SWR1 OUTPUT PRINT TIMES
                        STRESS PERIOD    7   TIME STEP    17
 --------------- --------------- --------------- --------------- ---------------
      23640.                                                                    
 -------------------------------------------------------------------------------
 
 SOLVING FOR HEAD 
 INITIAL HNEW IS AN EXACT SOLUTION.

 NO OUTPUT CONTROL FOR STRESS PERIOD    7   TIME STEP   18

 -------------------------------------------------------------------------------
                             SWR1 OUTPUT PRINT TIMES
                        STRESS PERIOD    7   TIME STEP    18
 --------------- --------------- --------------- --------------- ---------------
      23760.                                                                    
 -------------------------------------------------------------------------------
 
 SOLVING FOR HEAD 
 INITIAL HNEW IS AN EXACT SOLUTION.

 NO OUTPUT CONTROL FOR STRESS PERIOD    7   TIME STEP   19

 -------------------------------------------------------------------------------
                             SWR1 OUTPUT PRINT TIMES
                        STRESS PERIOD    7   TIME STEP    19
 --------------- --------------- --------------- --------------- ---------------
      23880.                                                                    
 -------------------------------------------------------------------------------
 
 SOLVING FOR HEAD 
 INITIAL HNEW IS AN EXACT SOLUTION.

 NO OUTPUT CONTROL FOR STRESS PERIOD    7   TIME STEP   20

 -------------------------------------------------------------------------------
                             SWR1 OUTPUT PRINT TIMES
                        STRESS PERIOD    7   TIME STEP    20
 --------------- --------------- --------------- --------------- ---------------
      24000.                                                                    
 -------------------------------------------------------------------------------
 
 SOLVING FOR HEAD 
 INITIAL HNEW IS AN EXACT SOLUTION.

 NO OUTPUT CONTROL FOR STRESS PERIOD    7   TIME STEP   21

 -------------------------------------------------------------------------------
                             SWR1 OUTPUT PRINT TIMES
                        STRESS PERIOD    7   TIME STEP    21
 --------------- --------------- --------------- --------------- ---------------
      24120.                                                                    
 -------------------------------------------------------------------------------
 
 SOLVING FOR HEAD 
 INITIAL HNEW IS AN EXACT SOLUTION.

 NO OUTPUT CONTROL FOR STRESS PERIOD    7   TIME STEP   22

 -------------------------------------------------------------------------------
                             SWR1 OUTPUT PRINT TIMES
                        STRESS PERIOD    7   TIME STEP    22
 --------------- --------------- --------------- --------------- ---------------
      24240.                                                                    
 -------------------------------------------------------------------------------
 
 SOLVING FOR HEAD 
 INITIAL HNEW IS AN EXACT SOLUTION.

 NO OUTPUT CONTROL FOR STRESS PERIOD    7   TIME STEP   23

 -------------------------------------------------------------------------------
                             SWR1 OUTPUT PRINT TIMES
                        STRESS PERIOD    7   TIME STEP    23
 --------------- --------------- --------------- --------------- ---------------
      24360.                                                                    
 -------------------------------------------------------------------------------
 
 SOLVING FOR HEAD 
 INITIAL HNEW IS AN EXACT SOLUTION.

 NO OUTPUT CONTROL FOR STRESS PERIOD    7   TIME STEP   24

 -------------------------------------------------------------------------------
                             SWR1 OUTPUT PRINT TIMES
                        STRESS PERIOD    7   TIME STEP    24
 --------------- --------------- --------------- --------------- ---------------
      24480.                                                                    
 -------------------------------------------------------------------------------
 
 SOLVING FOR HEAD 
 INITIAL HNEW IS AN EXACT SOLUTION.

 NO OUTPUT CONTROL FOR STRESS PERIOD    7   TIME STEP   25

 -------------------------------------------------------------------------------
                             SWR1 OUTPUT PRINT TIMES
                        STRESS PERIOD    7   TIME STEP    25
 --------------- --------------- --------------- --------------- ---------------
      24600.                                                                    
 -------------------------------------------------------------------------------
 
 SOLVING FOR HEAD 
 INITIAL HNEW IS AN EXACT SOLUTION.

 NO OUTPUT CONTROL FOR STRESS PERIOD    7   TIME STEP   26

 -------------------------------------------------------------------------------
                             SWR1 OUTPUT PRINT TIMES
                        STRESS PERIOD    7   TIME STEP    26
 --------------- --------------- --------------- --------------- ---------------
      24720.                                                                    
 -------------------------------------------------------------------------------
 
 SOLVING FOR HEAD 
 INITIAL HNEW IS AN EXACT SOLUTION.

 NO OUTPUT CONTROL FOR STRESS PERIOD    7   TIME STEP   27

 -------------------------------------------------------------------------------
                             SWR1 OUTPUT PRINT TIMES
                        STRESS PERIOD    7   TIME STEP    27
 --------------- --------------- --------------- --------------- ---------------
      24840.                                                                    
 -------------------------------------------------------------------------------
 
 SOLVING FOR HEAD 
 INITIAL HNEW IS AN EXACT SOLUTION.

 NO OUTPUT CONTROL FOR STRESS PERIOD    7   TIME STEP   28

 -------------------------------------------------------------------------------
                             SWR1 OUTPUT PRINT TIMES
                        STRESS PERIOD    7   TIME STEP    28
 --------------- --------------- --------------- --------------- ---------------
      24960.                                                                    
 -------------------------------------------------------------------------------
 
 SOLVING FOR HEAD 
 INITIAL HNEW IS AN EXACT SOLUTION.

 NO OUTPUT CONTROL FOR STRESS PERIOD    7   TIME STEP   29

 -------------------------------------------------------------------------------
                             SWR1 OUTPUT PRINT TIMES
                        STRESS PERIOD    7   TIME STEP    29
 --------------- --------------- --------------- --------------- ---------------
      25080.                                                                    
 -------------------------------------------------------------------------------
 
 SOLVING FOR HEAD 
 INITIAL HNEW IS AN EXACT SOLUTION.

 NO OUTPUT CONTROL FOR STRESS PERIOD    7   TIME STEP   30

 -------------------------------------------------------------------------------
                             SWR1 OUTPUT PRINT TIMES
                        STRESS PERIOD    7   TIME STEP    30
 --------------- --------------- --------------- --------------- ---------------
      25200.                                                                    
 -------------------------------------------------------------------------------


                    VOLUMETRIC SURFACE WATER BUDGET FOR ENTIRE MODEL
                    AT END OF TIME STEP    30 IN STRESS PERIOD    7
  -----------------------------------------------------------------------------------

        CUMULATIVE VOLUMES      L**3       RATES FOR THIS TIME STEP      L**3/T
        ------------------                 ------------------------

              IN:                                      IN:
              ---                                      ---
          LATERAL FLOW  =        5771.0449         LATERAL FLOW  =           1.1531
         UNSAT. RUNOFF  =           0.0000        UNSAT. RUNOFF  =           0.0000
              RAINFALL  =        8394.4268             RAINFALL  =           1.6773
           EVAPORATION  =           0.0000          EVAPORATION  =           0.0000
         REACH-AQ FLOW  =           0.0000        REACH-AQ FLOW  =           0.0000
         EXTERNAL FLOW  =           0.0000        EXTERNAL FLOW  =           0.0000
         BOUNDARY FLOW  =           0.0000        BOUNDARY FLOW  =           0.0000
         CONSTANT FLOW  =           0.0000        CONSTANT FLOW  =           0.0000
               STORAGE  =       11856.5498              STORAGE  =           0.1407

               TOTAL IN =       26022.0215              TOTAL IN =           2.9711

             OUT:                                     OUT:
             ----                                     ----
          LATERAL FLOW  =           0.0000         LATERAL FLOW  =           0.0000
         UNSAT. RUNOFF  =           0.0000        UNSAT. RUNOFF  =           0.0000
              RAINFALL  =           0.0000             RAINFALL  =           0.0000
           EVAPORATION  =           0.0000          EVAPORATION  =           0.0000
         REACH-AQ FLOW  =           0.0000        REACH-AQ FLOW  =           0.0000
         EXTERNAL FLOW  =           0.0000        EXTERNAL FLOW  =           0.0000
         BOUNDARY FLOW  =           0.0000        BOUNDARY FLOW  =           0.0000
         CONSTANT FLOW  =       15041.2646        CONSTANT FLOW  =           0.5969
               STORAGE  =       10980.7197              STORAGE  =           2.3742

              TOTAL OUT =       26021.9844             TOTAL OUT =           2.9711

               IN - OUT =       3.7109E-02              IN - OUT =      -1.1921E-06

    PERCENT DISCREPANCY =           0.00     PERCENT DISCREPANCY =           0.00

1
  VOLUMETRIC BUDGET FOR ENTIRE MODEL AT END OF TIME STEP   30, STRESS PERIOD   7
  ------------------------------------------------------------------------------

     CUMULATIVE VOLUMES      L**3       RATES FOR THIS TIME STEP      L**3/T
     ------------------                 ------------------------

           IN:                                      IN:
           ---                                      ---
             STORAGE =           0.0000               STORAGE =           0.0000
       CONSTANT HEAD =           0.0000         CONSTANT HEAD =           0.0000
         SWR LEAKAGE =           0.0000           SWR LEAKAGE =           0.0000
            SWR GWET =           0.0000              SWR GWET =           0.0000

            TOTAL IN =           0.0000              TOTAL IN =           0.0000

          OUT:                                     OUT:
          ----                                     ----
             STORAGE =           0.0000               STORAGE =           0.0000
       CONSTANT HEAD =           0.0000         CONSTANT HEAD =           0.0000
         SWR LEAKAGE =           0.0000           SWR LEAKAGE =           0.0000
            SWR GWET =           0.0000              SWR GWET =           0.0000

           TOTAL OUT =           0.0000             TOTAL OUT =           0.0000

            IN - OUT =           0.0000              IN - OUT =           0.0000

 PERCENT DISCREPANCY =           0.00     PERCENT DISCREPANCY =           0.00






         TIME SUMMARY AT END OF TIME STEP   30 IN STRESS PERIOD    7
                    SECONDS     MINUTES      HOURS       DAYS        YEARS
                    -----------------------------------------------------------
   TIME STEP LENGTH  120.00      2.0000     3.33333E-02 1.38889E-03 3.80257E-06
 STRESS PERIOD TIME  3600.0      60.000      1.0000     4.16667E-02 1.14077E-04
         TOTAL TIME  25200.      420.00      7.0000     0.29167     7.98540E-04
1
1
                            STRESS PERIOD NO.    8, LENGTH =   3600.000    
                            -----------------------------------------------

                              NUMBER OF TIME STEPS =    30

                               MULTIPLIER FOR DELT =     1.000

                            INITIAL TIME STEP SIZE =   120.0000    

 ...READING SWR1 PROCESS DATASET 5

 ...READING SWR1 PROCESS DATASET 7B



                   2D RAINFALL DATA
 READING ON UNIT   61 WITH FORMAT: (11E12.4)           

           1          2          3          4          5          6          7          8          9         10         11
 .........................................................................................................................
   1    0.00       0.00       0.00       0.00       0.00       0.00       0.00       0.00       0.00       0.00       0.00    
   2    0.00       0.00       0.00       0.00       0.00       0.00       0.00       0.00       0.00       0.00       0.00    
   3    0.00       0.00       0.00       0.00       0.00       0.00       0.00       0.00       0.00       0.00       0.00    
   4    0.00       0.00       0.00       0.00      1.167E-06  1.167E-06  1.167E-06   0.00       0.00       0.00       0.00    
   5    0.00       0.00       0.00       0.00      1.167E-06  1.167E-06  1.167E-06   0.00       0.00       0.00       0.00    
   6    0.00       0.00       0.00      1.167E-06  1.167E-06  1.167E-06  1.167E-06   0.00       0.00       0.00       0.00    
   7    0.00       0.00       0.00       0.00      1.167E-06  1.167E-06  1.167E-06   0.00       0.00       0.00       0.00    
   8    0.00       0.00       0.00       0.00      1.167E-06  1.167E-06  1.167E-06   0.00       0.00       0.00       0.00    
   9    0.00       0.00       0.00       0.00       0.00       0.00       0.00       0.00       0.00       0.00       0.00    
  10    0.00       0.00       0.00       0.00       0.00       0.00       0.00       0.00       0.00       0.00       0.00    
  11    0.00       0.00       0.00       0.00       0.00       0.00       0.00       0.00       0.00       0.00       0.00    

 ...READING SWR1 PROCESS DATASET 9B



             2D LATERAL INFLOW DATA
 READING ON UNIT   61 WITH FORMAT: (11E12.4)           

           1          2          3          4          5          6          7          8          9         10         11
 .........................................................................................................................
   1   0.292       0.00       0.00       0.00       0.00       0.00       0.00       0.00       0.00       0.00       0.00    
   2   0.292       0.00       0.00       0.00       0.00       0.00       0.00       0.00       0.00       0.00       0.00    
   3   0.292       0.00       0.00       0.00       0.00       0.00       0.00       0.00       0.00       0.00       0.00    
   4   0.292       0.00       0.00       0.00       0.00       0.00       0.00       0.00       0.00       0.00       0.00    
   5   0.292       0.00       0.00       0.00       0.00       0.00       0.00       0.00       0.00       0.00       0.00    
   6   0.292       0.00       0.00       0.00       0.00       0.00       0.00       0.00       0.00       0.00       0.00    
   7   0.292       0.00       0.00       0.00       0.00       0.00       0.00       0.00       0.00       0.00       0.00    
   8   0.292       0.00       0.00       0.00       0.00       0.00       0.00       0.00       0.00       0.00       0.00    
   9   0.292       0.00       0.00       0.00       0.00       0.00       0.00       0.00       0.00       0.00       0.00    
  10   0.292       0.00       0.00       0.00       0.00       0.00       0.00       0.00       0.00       0.00       0.00    
  11   0.292       0.00       0.00       0.00       0.00       0.00       0.00       0.00       0.00       0.00       0.00    
 
 SOLVING FOR HEAD 
 INITIAL HNEW IS AN EXACT SOLUTION.

 OUTPUT CONTROL FOR STRESS PERIOD    8   TIME STEP    1
    SAVE BUDGET

 -------------------------------------------------------------------------------
                             SWR1 OUTPUT PRINT TIMES
                        STRESS PERIOD    8   TIME STEP     1
 --------------- --------------- --------------- --------------- ---------------
      25320.                                                                    
 -------------------------------------------------------------------------------
 
 SOLVING FOR HEAD 
 INITIAL HNEW IS AN EXACT SOLUTION.

 NO OUTPUT CONTROL FOR STRESS PERIOD    8   TIME STEP    2

 -------------------------------------------------------------------------------
                             SWR1 OUTPUT PRINT TIMES
                        STRESS PERIOD    8   TIME STEP     2
 --------------- --------------- --------------- --------------- ---------------
      25440.                                                                    
 -------------------------------------------------------------------------------
 
 SOLVING FOR HEAD 
 INITIAL HNEW IS AN EXACT SOLUTION.

 NO OUTPUT CONTROL FOR STRESS PERIOD    8   TIME STEP    3

 -------------------------------------------------------------------------------
                             SWR1 OUTPUT PRINT TIMES
                        STRESS PERIOD    8   TIME STEP     3
 --------------- --------------- --------------- --------------- ---------------
      25560.                                                                    
 -------------------------------------------------------------------------------
 
 SOLVING FOR HEAD 
 INITIAL HNEW IS AN EXACT SOLUTION.

 NO OUTPUT CONTROL FOR STRESS PERIOD    8   TIME STEP    4

 -------------------------------------------------------------------------------
                             SWR1 OUTPUT PRINT TIMES
                        STRESS PERIOD    8   TIME STEP     4
 --------------- --------------- --------------- --------------- ---------------
      25680.                                                                    
 -------------------------------------------------------------------------------
 
 SOLVING FOR HEAD 
 INITIAL HNEW IS AN EXACT SOLUTION.

 NO OUTPUT CONTROL FOR STRESS PERIOD    8   TIME STEP    5

 -------------------------------------------------------------------------------
                             SWR1 OUTPUT PRINT TIMES
                        STRESS PERIOD    8   TIME STEP     5
 --------------- --------------- --------------- --------------- ---------------
      25800.                                                                    
 -------------------------------------------------------------------------------
 
 SOLVING FOR HEAD 
 INITIAL HNEW IS AN EXACT SOLUTION.

 NO OUTPUT CONTROL FOR STRESS PERIOD    8   TIME STEP    6

 -------------------------------------------------------------------------------
                             SWR1 OUTPUT PRINT TIMES
                        STRESS PERIOD    8   TIME STEP     6
 --------------- --------------- --------------- --------------- ---------------
      25920.                                                                    
 -------------------------------------------------------------------------------
 
 SOLVING FOR HEAD 
 INITIAL HNEW IS AN EXACT SOLUTION.

 NO OUTPUT CONTROL FOR STRESS PERIOD    8   TIME STEP    7

 -------------------------------------------------------------------------------
                             SWR1 OUTPUT PRINT TIMES
                        STRESS PERIOD    8   TIME STEP     7
 --------------- --------------- --------------- --------------- ---------------
      26040.                                                                    
 -------------------------------------------------------------------------------
 
 SOLVING FOR HEAD 
 INITIAL HNEW IS AN EXACT SOLUTION.

 NO OUTPUT CONTROL FOR STRESS PERIOD    8   TIME STEP    8

 -------------------------------------------------------------------------------
                             SWR1 OUTPUT PRINT TIMES
                        STRESS PERIOD    8   TIME STEP     8
 --------------- --------------- --------------- --------------- ---------------
      26160.                                                                    
 -------------------------------------------------------------------------------
 
 SOLVING FOR HEAD 
 INITIAL HNEW IS AN EXACT SOLUTION.

 NO OUTPUT CONTROL FOR STRESS PERIOD    8   TIME STEP    9

 -------------------------------------------------------------------------------
                             SWR1 OUTPUT PRINT TIMES
                        STRESS PERIOD    8   TIME STEP     9
 --------------- --------------- --------------- --------------- ---------------
      26280.                                                                    
 -------------------------------------------------------------------------------
 
 SOLVING FOR HEAD 
 INITIAL HNEW IS AN EXACT SOLUTION.

 NO OUTPUT CONTROL FOR STRESS PERIOD    8   TIME STEP   10

 -------------------------------------------------------------------------------
                             SWR1 OUTPUT PRINT TIMES
                        STRESS PERIOD    8   TIME STEP    10
 --------------- --------------- --------------- --------------- ---------------
      26400.                                                                    
 -------------------------------------------------------------------------------
 
 SOLVING FOR HEAD 
 INITIAL HNEW IS AN EXACT SOLUTION.

 NO OUTPUT CONTROL FOR STRESS PERIOD    8   TIME STEP   11

 -------------------------------------------------------------------------------
                             SWR1 OUTPUT PRINT TIMES
                        STRESS PERIOD    8   TIME STEP    11
 --------------- --------------- --------------- --------------- ---------------
      26520.                                                                    
 -------------------------------------------------------------------------------
 
 SOLVING FOR HEAD 
 INITIAL HNEW IS AN EXACT SOLUTION.

 NO OUTPUT CONTROL FOR STRESS PERIOD    8   TIME STEP   12

 -------------------------------------------------------------------------------
                             SWR1 OUTPUT PRINT TIMES
                        STRESS PERIOD    8   TIME STEP    12
 --------------- --------------- --------------- --------------- ---------------
      26640.                                                                    
 -------------------------------------------------------------------------------
 
 SOLVING FOR HEAD 
 INITIAL HNEW IS AN EXACT SOLUTION.

 NO OUTPUT CONTROL FOR STRESS PERIOD    8   TIME STEP   13

 -------------------------------------------------------------------------------
                             SWR1 OUTPUT PRINT TIMES
                        STRESS PERIOD    8   TIME STEP    13
 --------------- --------------- --------------- --------------- ---------------
      26760.                                                                    
 -------------------------------------------------------------------------------
 
 SOLVING FOR HEAD 
 INITIAL HNEW IS AN EXACT SOLUTION.

 NO OUTPUT CONTROL FOR STRESS PERIOD    8   TIME STEP   14

 -------------------------------------------------------------------------------
                             SWR1 OUTPUT PRINT TIMES
                        STRESS PERIOD    8   TIME STEP    14
 --------------- --------------- --------------- --------------- ---------------
      26880.                                                                    
 -------------------------------------------------------------------------------
 
 SOLVING FOR HEAD 
 INITIAL HNEW IS AN EXACT SOLUTION.

 NO OUTPUT CONTROL FOR STRESS PERIOD    8   TIME STEP   15

 -------------------------------------------------------------------------------
                             SWR1 OUTPUT PRINT TIMES
                        STRESS PERIOD    8   TIME STEP    15
 --------------- --------------- --------------- --------------- ---------------
      27000.                                                                    
 -------------------------------------------------------------------------------
 
 SOLVING FOR HEAD 
 INITIAL HNEW IS AN EXACT SOLUTION.

 NO OUTPUT CONTROL FOR STRESS PERIOD    8   TIME STEP   16

 -------------------------------------------------------------------------------
                             SWR1 OUTPUT PRINT TIMES
                        STRESS PERIOD    8   TIME STEP    16
 --------------- --------------- --------------- --------------- ---------------
      27120.                                                                    
 -------------------------------------------------------------------------------
 
 SOLVING FOR HEAD 
 INITIAL HNEW IS AN EXACT SOLUTION.

 NO OUTPUT CONTROL FOR STRESS PERIOD    8   TIME STEP   17

 -------------------------------------------------------------------------------
                             SWR1 OUTPUT PRINT TIMES
                        STRESS PERIOD    8   TIME STEP    17
 --------------- --------------- --------------- --------------- ---------------
      27240.                                                                    
 -------------------------------------------------------------------------------
 
 SOLVING FOR HEAD 
 INITIAL HNEW IS AN EXACT SOLUTION.

 NO OUTPUT CONTROL FOR STRESS PERIOD    8   TIME STEP   18

 -------------------------------------------------------------------------------
                             SWR1 OUTPUT PRINT TIMES
                        STRESS PERIOD    8   TIME STEP    18
 --------------- --------------- --------------- --------------- ---------------
      27360.                                                                    
 -------------------------------------------------------------------------------
 
 SOLVING FOR HEAD 
 INITIAL HNEW IS AN EXACT SOLUTION.

 NO OUTPUT CONTROL FOR STRESS PERIOD    8   TIME STEP   19

 -------------------------------------------------------------------------------
                             SWR1 OUTPUT PRINT TIMES
                        STRESS PERIOD    8   TIME STEP    19
 --------------- --------------- --------------- --------------- ---------------
      27480.                                                                    
 -------------------------------------------------------------------------------
 
 SOLVING FOR HEAD 
 INITIAL HNEW IS AN EXACT SOLUTION.

 NO OUTPUT CONTROL FOR STRESS PERIOD    8   TIME STEP   20

 -------------------------------------------------------------------------------
                             SWR1 OUTPUT PRINT TIMES
                        STRESS PERIOD    8   TIME STEP    20
 --------------- --------------- --------------- --------------- ---------------
      27600.                                                                    
 -------------------------------------------------------------------------------
 
 SOLVING FOR HEAD 
 INITIAL HNEW IS AN EXACT SOLUTION.

 NO OUTPUT CONTROL FOR STRESS PERIOD    8   TIME STEP   21

 -------------------------------------------------------------------------------
                             SWR1 OUTPUT PRINT TIMES
                        STRESS PERIOD    8   TIME STEP    21
 --------------- --------------- --------------- --------------- ---------------
      27720.                                                                    
 -------------------------------------------------------------------------------
 
 SOLVING FOR HEAD 
 INITIAL HNEW IS AN EXACT SOLUTION.

 NO OUTPUT CONTROL FOR STRESS PERIOD    8   TIME STEP   22

 -------------------------------------------------------------------------------
                             SWR1 OUTPUT PRINT TIMES
                        STRESS PERIOD    8   TIME STEP    22
 --------------- --------------- --------------- --------------- ---------------
      27840.                                                                    
 -------------------------------------------------------------------------------
 
 SOLVING FOR HEAD 
 INITIAL HNEW IS AN EXACT SOLUTION.

 NO OUTPUT CONTROL FOR STRESS PERIOD    8   TIME STEP   23

 -------------------------------------------------------------------------------
                             SWR1 OUTPUT PRINT TIMES
                        STRESS PERIOD    8   TIME STEP    23
 --------------- --------------- --------------- --------------- ---------------
      27960.                                                                    
 -------------------------------------------------------------------------------
 
 SOLVING FOR HEAD 
 INITIAL HNEW IS AN EXACT SOLUTION.

 NO OUTPUT CONTROL FOR STRESS PERIOD    8   TIME STEP   24

 -------------------------------------------------------------------------------
                             SWR1 OUTPUT PRINT TIMES
                        STRESS PERIOD    8   TIME STEP    24
 --------------- --------------- --------------- --------------- ---------------
      28080.                                                                    
 -------------------------------------------------------------------------------
 
 SOLVING FOR HEAD 
 INITIAL HNEW IS AN EXACT SOLUTION.

 NO OUTPUT CONTROL FOR STRESS PERIOD    8   TIME STEP   25

 -------------------------------------------------------------------------------
                             SWR1 OUTPUT PRINT TIMES
                        STRESS PERIOD    8   TIME STEP    25
 --------------- --------------- --------------- --------------- ---------------
      28200.                                                                    
 -------------------------------------------------------------------------------
 
 SOLVING FOR HEAD 
 INITIAL HNEW IS AN EXACT SOLUTION.

 NO OUTPUT CONTROL FOR STRESS PERIOD    8   TIME STEP   26

 -------------------------------------------------------------------------------
                             SWR1 OUTPUT PRINT TIMES
                        STRESS PERIOD    8   TIME STEP    26
 --------------- --------------- --------------- --------------- ---------------
      28320.                                                                    
 -------------------------------------------------------------------------------
 
 SOLVING FOR HEAD 
 INITIAL HNEW IS AN EXACT SOLUTION.

 NO OUTPUT CONTROL FOR STRESS PERIOD    8   TIME STEP   27

 -------------------------------------------------------------------------------
                             SWR1 OUTPUT PRINT TIMES
                        STRESS PERIOD    8   TIME STEP    27
 --------------- --------------- --------------- --------------- ---------------
      28440.                                                                    
 -------------------------------------------------------------------------------
 
 SOLVING FOR HEAD 
 INITIAL HNEW IS AN EXACT SOLUTION.

 NO OUTPUT CONTROL FOR STRESS PERIOD    8   TIME STEP   28

 -------------------------------------------------------------------------------
                             SWR1 OUTPUT PRINT TIMES
                        STRESS PERIOD    8   TIME STEP    28
 --------------- --------------- --------------- --------------- ---------------
      28560.                                                                    
 -------------------------------------------------------------------------------
 
 SOLVING FOR HEAD 
 INITIAL HNEW IS AN EXACT SOLUTION.

 NO OUTPUT CONTROL FOR STRESS PERIOD    8   TIME STEP   29

 -------------------------------------------------------------------------------
                             SWR1 OUTPUT PRINT TIMES
                        STRESS PERIOD    8   TIME STEP    29
 --------------- --------------- --------------- --------------- ---------------
      28680.                                                                    
 -------------------------------------------------------------------------------
 
 SOLVING FOR HEAD 
 INITIAL HNEW IS AN EXACT SOLUTION.

 NO OUTPUT CONTROL FOR STRESS PERIOD    8   TIME STEP   30

 -------------------------------------------------------------------------------
                             SWR1 OUTPUT PRINT TIMES
                        STRESS PERIOD    8   TIME STEP    30
 --------------- --------------- --------------- --------------- ---------------
      28800.                                                                    
 -------------------------------------------------------------------------------


                    VOLUMETRIC SURFACE WATER BUDGET FOR ENTIRE MODEL
                    AT END OF TIME STEP    30 IN STRESS PERIOD    8
  -----------------------------------------------------------------------------------

        CUMULATIVE VOLUMES      L**3       RATES FOR THIS TIME STEP      L**3/T
        ------------------                 ------------------------

              IN:                                      IN:
              ---                                      ---
          LATERAL FLOW  =       17326.3184         LATERAL FLOW  =           3.2098
         UNSAT. RUNOFF  =           0.0000        UNSAT. RUNOFF  =           0.0000
              RAINFALL  =       25202.1035             RAINFALL  =           4.6688
           EVAPORATION  =           0.0000          EVAPORATION  =           0.0000
         REACH-AQ FLOW  =           0.0000        REACH-AQ FLOW  =           0.0000
         EXTERNAL FLOW  =           0.0000        EXTERNAL FLOW  =           0.0000
         BOUNDARY FLOW  =           0.0000        BOUNDARY FLOW  =           0.0000
         CONSTANT FLOW  =           0.0000        CONSTANT FLOW  =           0.0000
               STORAGE  =       12135.6953              STORAGE  =       6.3440E-02

               TOTAL IN =       54664.1172              TOTAL IN =           7.9420

             OUT:                                     OUT:
             ----                                     ----
          LATERAL FLOW  =           0.0000         LATERAL FLOW  =           0.0000
         UNSAT. RUNOFF  =           0.0000        UNSAT. RUNOFF  =           0.0000
              RAINFALL  =           0.0000             RAINFALL  =           0.0000
           EVAPORATION  =           0.0000          EVAPORATION  =           0.0000
         REACH-AQ FLOW  =           0.0000        REACH-AQ FLOW  =           0.0000
         EXTERNAL FLOW  =           0.0000        EXTERNAL FLOW  =           0.0000
         BOUNDARY FLOW  =           0.0000        BOUNDARY FLOW  =           0.0000
         CONSTANT FLOW  =       17190.0527        CONSTANT FLOW  =           0.5969
               STORAGE  =       37474.0898              STORAGE  =           7.3452

              TOTAL OUT =       54664.1406             TOTAL OUT =           7.9421

               IN - OUT =      -2.3438E-02              IN - OUT =      -2.0981E-05

    PERCENT DISCREPANCY =           0.00     PERCENT DISCREPANCY =           0.00

1
  VOLUMETRIC BUDGET FOR ENTIRE MODEL AT END OF TIME STEP   30, STRESS PERIOD   8
  ------------------------------------------------------------------------------

     CUMULATIVE VOLUMES      L**3       RATES FOR THIS TIME STEP      L**3/T
     ------------------                 ------------------------

           IN:                                      IN:
           ---                                      ---
             STORAGE =           0.0000               STORAGE =           0.0000
       CONSTANT HEAD =           0.0000         CONSTANT HEAD =           0.0000
         SWR LEAKAGE =           0.0000           SWR LEAKAGE =           0.0000
            SWR GWET =           0.0000              SWR GWET =           0.0000

            TOTAL IN =           0.0000              TOTAL IN =           0.0000

          OUT:                                     OUT:
          ----                                     ----
             STORAGE =           0.0000               STORAGE =           0.0000
       CONSTANT HEAD =           0.0000         CONSTANT HEAD =           0.0000
         SWR LEAKAGE =           0.0000           SWR LEAKAGE =           0.0000
            SWR GWET =           0.0000              SWR GWET =           0.0000

           TOTAL OUT =           0.0000             TOTAL OUT =           0.0000

            IN - OUT =           0.0000              IN - OUT =           0.0000

 PERCENT DISCREPANCY =           0.00     PERCENT DISCREPANCY =           0.00






         TIME SUMMARY AT END OF TIME STEP   30 IN STRESS PERIOD    8
                    SECONDS     MINUTES      HOURS       DAYS        YEARS
                    -----------------------------------------------------------
   TIME STEP LENGTH  120.00      2.0000     3.33333E-02 1.38889E-03 3.80257E-06
 STRESS PERIOD TIME  3600.0      60.000      1.0000     4.16667E-02 1.14077E-04
         TOTAL TIME  28800.      480.00      8.0000     0.33333     9.12617E-04
1
1
                            STRESS PERIOD NO.    9, LENGTH =   3600.000    
                            -----------------------------------------------

                              NUMBER OF TIME STEPS =    30

                               MULTIPLIER FOR DELT =     1.000

                            INITIAL TIME STEP SIZE =   120.0000    

 ...READING SWR1 PROCESS DATASET 5

 ...READING SWR1 PROCESS DATASET 7B



                   2D RAINFALL DATA
 READING ON UNIT   61 WITH FORMAT: (11E12.4)           

           1          2          3          4          5          6          7          8          9         10         11
 .........................................................................................................................
   1    0.00       0.00       0.00       0.00       0.00       0.00       0.00       0.00       0.00       0.00       0.00    
   2    0.00       0.00       0.00       0.00       0.00       0.00       0.00       0.00       0.00       0.00       0.00    
   3    0.00       0.00       0.00       0.00       0.00       0.00       0.00       0.00       0.00       0.00       0.00    
   4    0.00       0.00       0.00       0.00      2.697E-06  2.697E-06  2.697E-06   0.00       0.00       0.00       0.00    
   5    0.00       0.00       0.00       0.00      2.697E-06  2.697E-06  2.697E-06   0.00       0.00       0.00       0.00    
   6    0.00       0.00       0.00      2.697E-06  2.697E-06  2.697E-06  2.697E-06   0.00       0.00       0.00       0.00    
   7    0.00       0.00       0.00       0.00      2.697E-06  2.697E-06  2.697E-06   0.00       0.00       0.00       0.00    
   8    0.00       0.00       0.00       0.00      2.697E-06  2.697E-06  2.697E-06   0.00       0.00       0.00       0.00    
   9    0.00       0.00       0.00       0.00       0.00       0.00       0.00       0.00       0.00       0.00       0.00    
  10    0.00       0.00       0.00       0.00       0.00       0.00       0.00       0.00       0.00       0.00       0.00    
  11    0.00       0.00       0.00       0.00       0.00       0.00       0.00       0.00       0.00       0.00       0.00    

 ...READING SWR1 PROCESS DATASET 9B



             2D LATERAL INFLOW DATA
 READING ON UNIT   61 WITH FORMAT: (11E12.4)           

           1          2          3          4          5          6          7          8          9         10         11
 .........................................................................................................................
   1   0.674       0.00       0.00       0.00       0.00       0.00       0.00       0.00       0.00       0.00       0.00    
   2   0.674       0.00       0.00       0.00       0.00       0.00       0.00       0.00       0.00       0.00       0.00    
   3   0.674       0.00       0.00       0.00       0.00       0.00       0.00       0.00       0.00       0.00       0.00    
   4   0.674       0.00       0.00       0.00       0.00       0.00       0.00       0.00       0.00       0.00       0.00    
   5   0.674       0.00       0.00       0.00       0.00       0.00       0.00       0.00       0.00       0.00       0.00    
   6   0.674       0.00       0.00       0.00       0.00       0.00       0.00       0.00       0.00       0.00       0.00    
   7   0.674       0.00       0.00       0.00       0.00       0.00       0.00       0.00       0.00       0.00       0.00    
   8   0.674       0.00       0.00       0.00       0.00       0.00       0.00       0.00       0.00       0.00       0.00    
   9   0.674       0.00       0.00       0.00       0.00       0.00       0.00       0.00       0.00       0.00       0.00    
  10   0.674       0.00       0.00       0.00       0.00       0.00       0.00       0.00       0.00       0.00       0.00    
  11   0.674       0.00       0.00       0.00       0.00       0.00       0.00       0.00       0.00       0.00       0.00    
 
 SOLVING FOR HEAD 
 INITIAL HNEW IS AN EXACT SOLUTION.

 OUTPUT CONTROL FOR STRESS PERIOD    9   TIME STEP    1
    SAVE BUDGET

 -------------------------------------------------------------------------------
                             SWR1 OUTPUT PRINT TIMES
                        STRESS PERIOD    9   TIME STEP     1
 --------------- --------------- --------------- --------------- ---------------
      28920.                                                                    
 -------------------------------------------------------------------------------
 
 SOLVING FOR HEAD 
 INITIAL HNEW IS AN EXACT SOLUTION.

 NO OUTPUT CONTROL FOR STRESS PERIOD    9   TIME STEP    2

 -------------------------------------------------------------------------------
                             SWR1 OUTPUT PRINT TIMES
                        STRESS PERIOD    9   TIME STEP     2
 --------------- --------------- --------------- --------------- ---------------
      29040.                                                                    
 -------------------------------------------------------------------------------
 
 SOLVING FOR HEAD 
 INITIAL HNEW IS AN EXACT SOLUTION.

 NO OUTPUT CONTROL FOR STRESS PERIOD    9   TIME STEP    3

 -------------------------------------------------------------------------------
                             SWR1 OUTPUT PRINT TIMES
                        STRESS PERIOD    9   TIME STEP     3
 --------------- --------------- --------------- --------------- ---------------
      29160.                                                                    
 -------------------------------------------------------------------------------
 
 SOLVING FOR HEAD 
 INITIAL HNEW IS AN EXACT SOLUTION.

 NO OUTPUT CONTROL FOR STRESS PERIOD    9   TIME STEP    4

 -------------------------------------------------------------------------------
                             SWR1 OUTPUT PRINT TIMES
                        STRESS PERIOD    9   TIME STEP     4
 --------------- --------------- --------------- --------------- ---------------
      29280.                                                                    
 -------------------------------------------------------------------------------
 
 SOLVING FOR HEAD 
 INITIAL HNEW IS AN EXACT SOLUTION.

 NO OUTPUT CONTROL FOR STRESS PERIOD    9   TIME STEP    5

 -------------------------------------------------------------------------------
                             SWR1 OUTPUT PRINT TIMES
                        STRESS PERIOD    9   TIME STEP     5
 --------------- --------------- --------------- --------------- ---------------
      29400.                                                                    
 -------------------------------------------------------------------------------
 
 SOLVING FOR HEAD 
 INITIAL HNEW IS AN EXACT SOLUTION.

 NO OUTPUT CONTROL FOR STRESS PERIOD    9   TIME STEP    6

 -------------------------------------------------------------------------------
                             SWR1 OUTPUT PRINT TIMES
                        STRESS PERIOD    9   TIME STEP     6
 --------------- --------------- --------------- --------------- ---------------
      29520.                                                                    
 -------------------------------------------------------------------------------
 
 SOLVING FOR HEAD 
 INITIAL HNEW IS AN EXACT SOLUTION.

 NO OUTPUT CONTROL FOR STRESS PERIOD    9   TIME STEP    7

 -------------------------------------------------------------------------------
                             SWR1 OUTPUT PRINT TIMES
                        STRESS PERIOD    9   TIME STEP     7
 --------------- --------------- --------------- --------------- ---------------
      29640.                                                                    
 -------------------------------------------------------------------------------
 
 SOLVING FOR HEAD 
 INITIAL HNEW IS AN EXACT SOLUTION.

 NO OUTPUT CONTROL FOR STRESS PERIOD    9   TIME STEP    8

 -------------------------------------------------------------------------------
                             SWR1 OUTPUT PRINT TIMES
                        STRESS PERIOD    9   TIME STEP     8
 --------------- --------------- --------------- --------------- ---------------
      29760.                                                                    
 -------------------------------------------------------------------------------
 
 SOLVING FOR HEAD 
 INITIAL HNEW IS AN EXACT SOLUTION.

 NO OUTPUT CONTROL FOR STRESS PERIOD    9   TIME STEP    9

 -------------------------------------------------------------------------------
                             SWR1 OUTPUT PRINT TIMES
                        STRESS PERIOD    9   TIME STEP     9
 --------------- --------------- --------------- --------------- ---------------
      29880.                                                                    
 -------------------------------------------------------------------------------
 
 SOLVING FOR HEAD 
 INITIAL HNEW IS AN EXACT SOLUTION.

 NO OUTPUT CONTROL FOR STRESS PERIOD    9   TIME STEP   10

 -------------------------------------------------------------------------------
                             SWR1 OUTPUT PRINT TIMES
                        STRESS PERIOD    9   TIME STEP    10
 --------------- --------------- --------------- --------------- ---------------
      30000.                                                                    
 -------------------------------------------------------------------------------
 
 SOLVING FOR HEAD 
 INITIAL HNEW IS AN EXACT SOLUTION.

 NO OUTPUT CONTROL FOR STRESS PERIOD    9   TIME STEP   11

 -------------------------------------------------------------------------------
                             SWR1 OUTPUT PRINT TIMES
                        STRESS PERIOD    9   TIME STEP    11
 --------------- --------------- --------------- --------------- ---------------
      30120.                                                                    
 -------------------------------------------------------------------------------
 
 SOLVING FOR HEAD 
 INITIAL HNEW IS AN EXACT SOLUTION.

 NO OUTPUT CONTROL FOR STRESS PERIOD    9   TIME STEP   12

 -------------------------------------------------------------------------------
                             SWR1 OUTPUT PRINT TIMES
                        STRESS PERIOD    9   TIME STEP    12
 --------------- --------------- --------------- --------------- ---------------
      30240.                                                                    
 -------------------------------------------------------------------------------
 
 SOLVING FOR HEAD 
 INITIAL HNEW IS AN EXACT SOLUTION.

 NO OUTPUT CONTROL FOR STRESS PERIOD    9   TIME STEP   13

 -------------------------------------------------------------------------------
                             SWR1 OUTPUT PRINT TIMES
                        STRESS PERIOD    9   TIME STEP    13
 --------------- --------------- --------------- --------------- ---------------
      30360.                                                                    
 -------------------------------------------------------------------------------
 
 SOLVING FOR HEAD 
 INITIAL HNEW IS AN EXACT SOLUTION.

 NO OUTPUT CONTROL FOR STRESS PERIOD    9   TIME STEP   14

 -------------------------------------------------------------------------------
                             SWR1 OUTPUT PRINT TIMES
                        STRESS PERIOD    9   TIME STEP    14
 --------------- --------------- --------------- --------------- ---------------
      30480.                                                                    
 -------------------------------------------------------------------------------
 
 SOLVING FOR HEAD 
 INITIAL HNEW IS AN EXACT SOLUTION.

 NO OUTPUT CONTROL FOR STRESS PERIOD    9   TIME STEP   15

 -------------------------------------------------------------------------------
                             SWR1 OUTPUT PRINT TIMES
                        STRESS PERIOD    9   TIME STEP    15
 --------------- --------------- --------------- --------------- ---------------
      30600.                                                                    
 -------------------------------------------------------------------------------
 
 SOLVING FOR HEAD 
 INITIAL HNEW IS AN EXACT SOLUTION.

 NO OUTPUT CONTROL FOR STRESS PERIOD    9   TIME STEP   16

 -------------------------------------------------------------------------------
                             SWR1 OUTPUT PRINT TIMES
                        STRESS PERIOD    9   TIME STEP    16
 --------------- --------------- --------------- --------------- ---------------
      30720.                                                                    
 -------------------------------------------------------------------------------
 
 SOLVING FOR HEAD 
 INITIAL HNEW IS AN EXACT SOLUTION.

 NO OUTPUT CONTROL FOR STRESS PERIOD    9   TIME STEP   17

 -------------------------------------------------------------------------------
                             SWR1 OUTPUT PRINT TIMES
                        STRESS PERIOD    9   TIME STEP    17
 --------------- --------------- --------------- --------------- ---------------
      30840.                                                                    
 -------------------------------------------------------------------------------
 
 SOLVING FOR HEAD 
 INITIAL HNEW IS AN EXACT SOLUTION.

 NO OUTPUT CONTROL FOR STRESS PERIOD    9   TIME STEP   18

 -------------------------------------------------------------------------------
                             SWR1 OUTPUT PRINT TIMES
                        STRESS PERIOD    9   TIME STEP    18
 --------------- --------------- --------------- --------------- ---------------
      30960.                                                                    
 -------------------------------------------------------------------------------
 
 SOLVING FOR HEAD 
 INITIAL HNEW IS AN EXACT SOLUTION.

 NO OUTPUT CONTROL FOR STRESS PERIOD    9   TIME STEP   19

 -------------------------------------------------------------------------------
                             SWR1 OUTPUT PRINT TIMES
                        STRESS PERIOD    9   TIME STEP    19
 --------------- --------------- --------------- --------------- ---------------
      31080.                                                                    
 -------------------------------------------------------------------------------
 
 SOLVING FOR HEAD 
 INITIAL HNEW IS AN EXACT SOLUTION.

 NO OUTPUT CONTROL FOR STRESS PERIOD    9   TIME STEP   20

 -------------------------------------------------------------------------------
                             SWR1 OUTPUT PRINT TIMES
                        STRESS PERIOD    9   TIME STEP    20
 --------------- --------------- --------------- --------------- ---------------
      31200.                                                                    
 -------------------------------------------------------------------------------
 
 SOLVING FOR HEAD 
 INITIAL HNEW IS AN EXACT SOLUTION.

 NO OUTPUT CONTROL FOR STRESS PERIOD    9   TIME STEP   21

 -------------------------------------------------------------------------------
                             SWR1 OUTPUT PRINT TIMES
                        STRESS PERIOD    9   TIME STEP    21
 --------------- --------------- --------------- --------------- ---------------
      31320.                                                                    
 -------------------------------------------------------------------------------
 
 SOLVING FOR HEAD 
 INITIAL HNEW IS AN EXACT SOLUTION.

 NO OUTPUT CONTROL FOR STRESS PERIOD    9   TIME STEP   22

 -------------------------------------------------------------------------------
                             SWR1 OUTPUT PRINT TIMES
                        STRESS PERIOD    9   TIME STEP    22
 --------------- --------------- --------------- --------------- ---------------
      31440.                                                                    
 -------------------------------------------------------------------------------
 
 SOLVING FOR HEAD 
 INITIAL HNEW IS AN EXACT SOLUTION.

 NO OUTPUT CONTROL FOR STRESS PERIOD    9   TIME STEP   23

 -------------------------------------------------------------------------------
                             SWR1 OUTPUT PRINT TIMES
                        STRESS PERIOD    9   TIME STEP    23
 --------------- --------------- --------------- --------------- ---------------
      31560.                                                                    
 -------------------------------------------------------------------------------
 
 SOLVING FOR HEAD 
 INITIAL HNEW IS AN EXACT SOLUTION.

 NO OUTPUT CONTROL FOR STRESS PERIOD    9   TIME STEP   24

 -------------------------------------------------------------------------------
                             SWR1 OUTPUT PRINT TIMES
                        STRESS PERIOD    9   TIME STEP    24
 --------------- --------------- --------------- --------------- ---------------
      31680.                                                                    
 -------------------------------------------------------------------------------
 
 SOLVING FOR HEAD 
 INITIAL HNEW IS AN EXACT SOLUTION.

 NO OUTPUT CONTROL FOR STRESS PERIOD    9   TIME STEP   25

 -------------------------------------------------------------------------------
                             SWR1 OUTPUT PRINT TIMES
                        STRESS PERIOD    9   TIME STEP    25
 --------------- --------------- --------------- --------------- ---------------
      31800.                                                                    
 -------------------------------------------------------------------------------
 
 SOLVING FOR HEAD 
 INITIAL HNEW IS AN EXACT SOLUTION.

 NO OUTPUT CONTROL FOR STRESS PERIOD    9   TIME STEP   26

 -------------------------------------------------------------------------------
                             SWR1 OUTPUT PRINT TIMES
                        STRESS PERIOD    9   TIME STEP    26
 --------------- --------------- --------------- --------------- ---------------
      31920.                                                                    
 -------------------------------------------------------------------------------
 
 SOLVING FOR HEAD 
 INITIAL HNEW IS AN EXACT SOLUTION.

 NO OUTPUT CONTROL FOR STRESS PERIOD    9   TIME STEP   27

 -------------------------------------------------------------------------------
                             SWR1 OUTPUT PRINT TIMES
                        STRESS PERIOD    9   TIME STEP    27
 --------------- --------------- --------------- --------------- ---------------
      32040.                                                                    
 -------------------------------------------------------------------------------
 
 SOLVING FOR HEAD 
 INITIAL HNEW IS AN EXACT SOLUTION.

 NO OUTPUT CONTROL FOR STRESS PERIOD    9   TIME STEP   28

 -------------------------------------------------------------------------------
                             SWR1 OUTPUT PRINT TIMES
                        STRESS PERIOD    9   TIME STEP    28
 --------------- --------------- --------------- --------------- ---------------
      32160.                                                                    
 -------------------------------------------------------------------------------
 
 SOLVING FOR HEAD 
 INITIAL HNEW IS AN EXACT SOLUTION.

 NO OUTPUT CONTROL FOR STRESS PERIOD    9   TIME STEP   29

 -------------------------------------------------------------------------------
                             SWR1 OUTPUT PRINT TIMES
                        STRESS PERIOD    9   TIME STEP    29
 --------------- --------------- --------------- --------------- ---------------
      32280.                                                                    
 -------------------------------------------------------------------------------
 
 SOLVING FOR HEAD 
 INITIAL HNEW IS AN EXACT SOLUTION.

 NO OUTPUT CONTROL FOR STRESS PERIOD    9   TIME STEP   30

 -------------------------------------------------------------------------------
                             SWR1 OUTPUT PRINT TIMES
                        STRESS PERIOD    9   TIME STEP    30
 --------------- --------------- --------------- --------------- ---------------
      32400.                                                                    
 -------------------------------------------------------------------------------


                    VOLUMETRIC SURFACE WATER BUDGET FOR ENTIRE MODEL
                    AT END OF TIME STEP    30 IN STRESS PERIOD    9
  -----------------------------------------------------------------------------------

        CUMULATIVE VOLUMES      L**3       RATES FOR THIS TIME STEP      L**3/T
        ------------------                 ------------------------

              IN:                                      IN:
              ---                                      ---
          LATERAL FLOW  =       44025.8477         LATERAL FLOW  =           7.4165
         UNSAT. RUNOFF  =           0.0000        UNSAT. RUNOFF  =           0.0000
              RAINFALL  =       64037.4570             RAINFALL  =          10.7876
           EVAPORATION  =           0.0000          EVAPORATION  =           0.0000
         REACH-AQ FLOW  =           0.0000        REACH-AQ FLOW  =           0.0000
         EXTERNAL FLOW  =           0.0000        EXTERNAL FLOW  =           0.0000
         BOUNDARY FLOW  =           0.0000        BOUNDARY FLOW  =           0.0000
         CONSTANT FLOW  =           0.0000        CONSTANT FLOW  =           0.0000
               STORAGE  =       12350.5352              STORAGE  =       5.0836E-02

               TOTAL IN =      120413.8438              TOTAL IN =          18.2550

             OUT:                                     OUT:
             ----                                     ----
          LATERAL FLOW  =           0.0000         LATERAL FLOW  =           0.0000
         UNSAT. RUNOFF  =           0.0000        UNSAT. RUNOFF  =           0.0000
              RAINFALL  =           0.0000             RAINFALL  =           0.0000
           EVAPORATION  =           0.0000          EVAPORATION  =           0.0000
         REACH-AQ FLOW  =           0.0000        REACH-AQ FLOW  =           0.0000
         EXTERNAL FLOW  =           0.0000        EXTERNAL FLOW  =           0.0000
         BOUNDARY FLOW  =           0.0000        BOUNDARY FLOW  =           0.0000
         CONSTANT FLOW  =       19338.8848        CONSTANT FLOW  =           0.5969
               STORAGE  =      101075.2891              STORAGE  =          17.6582

              TOTAL OUT =      120414.1719             TOTAL OUT =          18.2551

               IN - OUT =          -0.3281              IN - OUT =      -1.2016E-04

    PERCENT DISCREPANCY =           0.00     PERCENT DISCREPANCY =           0.00

1
  VOLUMETRIC BUDGET FOR ENTIRE MODEL AT END OF TIME STEP   30, STRESS PERIOD   9
  ------------------------------------------------------------------------------

     CUMULATIVE VOLUMES      L**3       RATES FOR THIS TIME STEP      L**3/T
     ------------------                 ------------------------

           IN:                                      IN:
           ---                                      ---
             STORAGE =           0.0000               STORAGE =           0.0000
       CONSTANT HEAD =           0.0000         CONSTANT HEAD =           0.0000
         SWR LEAKAGE =           0.0000           SWR LEAKAGE =           0.0000
            SWR GWET =           0.0000              SWR GWET =           0.0000

            TOTAL IN =           0.0000              TOTAL IN =           0.0000

          OUT:                                     OUT:
          ----                                     ----
             STORAGE =           0.0000               STORAGE =           0.0000
       CONSTANT HEAD =           0.0000         CONSTANT HEAD =           0.0000
         SWR LEAKAGE =           0.0000           SWR LEAKAGE =           0.0000
            SWR GWET =           0.0000              SWR GWET =           0.0000

           TOTAL OUT =           0.0000             TOTAL OUT =           0.0000

            IN - OUT =           0.0000              IN - OUT =           0.0000

 PERCENT DISCREPANCY =           0.00     PERCENT DISCREPANCY =           0.00






         TIME SUMMARY AT END OF TIME STEP   30 IN STRESS PERIOD    9
                    SECONDS     MINUTES      HOURS       DAYS        YEARS
                    -----------------------------------------------------------
   TIME STEP LENGTH  120.00      2.0000     3.33333E-02 1.38889E-03 3.80257E-06
 STRESS PERIOD TIME  3600.0      60.000      1.0000     4.16667E-02 1.14077E-04
         TOTAL TIME  32400.      540.00      9.0000     0.37500     1.02669E-03
1
1
                            STRESS PERIOD NO.   10, LENGTH =   3600.000    
                            -----------------------------------------------

                              NUMBER OF TIME STEPS =    30

                               MULTIPLIER FOR DELT =     1.000

                            INITIAL TIME STEP SIZE =   120.0000    

 ...READING SWR1 PROCESS DATASET 5

 ...READING SWR1 PROCESS DATASET 7B



                   2D RAINFALL DATA
 READING ON UNIT   61 WITH FORMAT: (11E12.4)           

           1          2          3          4          5          6          7          8          9         10         11
 .........................................................................................................................
   1    0.00       0.00       0.00       0.00       0.00       0.00       0.00       0.00       0.00       0.00       0.00    
   2    0.00       0.00       0.00       0.00       0.00       0.00       0.00       0.00       0.00       0.00       0.00    
   3    0.00       0.00       0.00       0.00       0.00       0.00       0.00       0.00       0.00       0.00       0.00    
   4    0.00       0.00       0.00       0.00      5.173E-06  5.173E-06  5.173E-06   0.00       0.00       0.00       0.00    
   5    0.00       0.00       0.00       0.00      5.173E-06  5.173E-06  5.173E-06   0.00       0.00       0.00       0.00    
   6    0.00       0.00       0.00      5.173E-06  5.173E-06  5.173E-06  5.173E-06   0.00       0.00       0.00       0.00    
   7    0.00       0.00       0.00       0.00      5.173E-06  5.173E-06  5.173E-06   0.00       0.00       0.00       0.00    
   8    0.00       0.00       0.00       0.00      5.173E-06  5.173E-06  5.173E-06   0.00       0.00       0.00       0.00    
   9    0.00       0.00       0.00       0.00       0.00       0.00       0.00       0.00       0.00       0.00       0.00    
  10    0.00       0.00       0.00       0.00       0.00       0.00       0.00       0.00       0.00       0.00       0.00    
  11    0.00       0.00       0.00       0.00       0.00       0.00       0.00       0.00       0.00       0.00       0.00    

 ...READING SWR1 PROCESS DATASET 9B



             2D LATERAL INFLOW DATA
 READING ON UNIT   61 WITH FORMAT: (11E12.4)           

           1          2          3          4          5          6          7          8          9         10         11
 .........................................................................................................................
   1    1.29       0.00       0.00       0.00       0.00       0.00       0.00       0.00       0.00       0.00       0.00    
   2    1.29       0.00       0.00       0.00       0.00       0.00       0.00       0.00       0.00       0.00       0.00    
   3    1.29       0.00       0.00       0.00       0.00       0.00       0.00       0.00       0.00       0.00       0.00    
   4    1.29       0.00       0.00       0.00       0.00       0.00       0.00       0.00       0.00       0.00       0.00    
   5    1.29       0.00       0.00       0.00       0.00       0.00       0.00       0.00       0.00       0.00       0.00    
   6    1.29       0.00       0.00       0.00       0.00       0.00       0.00       0.00       0.00       0.00       0.00    
   7    1.29       0.00       0.00       0.00       0.00       0.00       0.00       0.00       0.00       0.00       0.00    
   8    1.29       0.00       0.00       0.00       0.00       0.00       0.00       0.00       0.00       0.00       0.00    
   9    1.29       0.00       0.00       0.00       0.00       0.00       0.00       0.00       0.00       0.00       0.00    
  10    1.29       0.00       0.00       0.00       0.00       0.00       0.00       0.00       0.00       0.00       0.00    
  11    1.29       0.00       0.00       0.00       0.00       0.00       0.00       0.00       0.00       0.00       0.00    
 
 SOLVING FOR HEAD 
 INITIAL HNEW IS AN EXACT SOLUTION.

 OUTPUT CONTROL FOR STRESS PERIOD   10   TIME STEP    1
    SAVE BUDGET

 -------------------------------------------------------------------------------
                             SWR1 OUTPUT PRINT TIMES
                        STRESS PERIOD   10   TIME STEP     1
 --------------- --------------- --------------- --------------- ---------------
      32520.                                                                    
 -------------------------------------------------------------------------------
 
 SOLVING FOR HEAD 
 INITIAL HNEW IS AN EXACT SOLUTION.

 NO OUTPUT CONTROL FOR STRESS PERIOD   10   TIME STEP    2

 -------------------------------------------------------------------------------
                             SWR1 OUTPUT PRINT TIMES
                        STRESS PERIOD   10   TIME STEP     2
 --------------- --------------- --------------- --------------- ---------------
      32640.                                                                    
 -------------------------------------------------------------------------------
 
 SOLVING FOR HEAD 
 INITIAL HNEW IS AN EXACT SOLUTION.

 NO OUTPUT CONTROL FOR STRESS PERIOD   10   TIME STEP    3

 -------------------------------------------------------------------------------
                             SWR1 OUTPUT PRINT TIMES
                        STRESS PERIOD   10   TIME STEP     3
 --------------- --------------- --------------- --------------- ---------------
      32760.                                                                    
 -------------------------------------------------------------------------------
 
 SOLVING FOR HEAD 
 INITIAL HNEW IS AN EXACT SOLUTION.

 NO OUTPUT CONTROL FOR STRESS PERIOD   10   TIME STEP    4

 -------------------------------------------------------------------------------
                             SWR1 OUTPUT PRINT TIMES
                        STRESS PERIOD   10   TIME STEP     4
 --------------- --------------- --------------- --------------- ---------------
      32880.                                                                    
 -------------------------------------------------------------------------------
 
 SOLVING FOR HEAD 
 INITIAL HNEW IS AN EXACT SOLUTION.

 NO OUTPUT CONTROL FOR STRESS PERIOD   10   TIME STEP    5

 -------------------------------------------------------------------------------
                             SWR1 OUTPUT PRINT TIMES
                        STRESS PERIOD   10   TIME STEP     5
 --------------- --------------- --------------- --------------- ---------------
      33000.                                                                    
 -------------------------------------------------------------------------------
 
 SOLVING FOR HEAD 
 INITIAL HNEW IS AN EXACT SOLUTION.

 NO OUTPUT CONTROL FOR STRESS PERIOD   10   TIME STEP    6

 -------------------------------------------------------------------------------
                             SWR1 OUTPUT PRINT TIMES
                        STRESS PERIOD   10   TIME STEP     6
 --------------- --------------- --------------- --------------- ---------------
      33120.                                                                    
 -------------------------------------------------------------------------------
 
 SOLVING FOR HEAD 
 INITIAL HNEW IS AN EXACT SOLUTION.

 NO OUTPUT CONTROL FOR STRESS PERIOD   10   TIME STEP    7

 -------------------------------------------------------------------------------
                             SWR1 OUTPUT PRINT TIMES
                        STRESS PERIOD   10   TIME STEP     7
 --------------- --------------- --------------- --------------- ---------------
      33240.                                                                    
 -------------------------------------------------------------------------------
 
 SOLVING FOR HEAD 
 INITIAL HNEW IS AN EXACT SOLUTION.

 NO OUTPUT CONTROL FOR STRESS PERIOD   10   TIME STEP    8

 -------------------------------------------------------------------------------
                             SWR1 OUTPUT PRINT TIMES
                        STRESS PERIOD   10   TIME STEP     8
 --------------- --------------- --------------- --------------- ---------------
      33360.                                                                    
 -------------------------------------------------------------------------------
 
 SOLVING FOR HEAD 
 INITIAL HNEW IS AN EXACT SOLUTION.

 NO OUTPUT CONTROL FOR STRESS PERIOD   10   TIME STEP    9

 -------------------------------------------------------------------------------
                             SWR1 OUTPUT PRINT TIMES
                        STRESS PERIOD   10   TIME STEP     9
 --------------- --------------- --------------- --------------- ---------------
      33480.                                                                    
 -------------------------------------------------------------------------------
 
 SOLVING FOR HEAD 
 INITIAL HNEW IS AN EXACT SOLUTION.

 NO OUTPUT CONTROL FOR STRESS PERIOD   10   TIME STEP   10

 -------------------------------------------------------------------------------
                             SWR1 OUTPUT PRINT TIMES
                        STRESS PERIOD   10   TIME STEP    10
 --------------- --------------- --------------- --------------- ---------------
      33600.                                                                    
 -------------------------------------------------------------------------------
 
 SOLVING FOR HEAD 
 INITIAL HNEW IS AN EXACT SOLUTION.

 NO OUTPUT CONTROL FOR STRESS PERIOD   10   TIME STEP   11

 -------------------------------------------------------------------------------
                             SWR1 OUTPUT PRINT TIMES
                        STRESS PERIOD   10   TIME STEP    11
 --------------- --------------- --------------- --------------- ---------------
      33720.                                                                    
 -------------------------------------------------------------------------------
 
 SOLVING FOR HEAD 
 INITIAL HNEW IS AN EXACT SOLUTION.

 NO OUTPUT CONTROL FOR STRESS PERIOD   10   TIME STEP   12

 -------------------------------------------------------------------------------
                             SWR1 OUTPUT PRINT TIMES
                        STRESS PERIOD   10   TIME STEP    12
 --------------- --------------- --------------- --------------- ---------------
      33840.                                                                    
 -------------------------------------------------------------------------------
 
 SOLVING FOR HEAD 
 INITIAL HNEW IS AN EXACT SOLUTION.

 NO OUTPUT CONTROL FOR STRESS PERIOD   10   TIME STEP   13

 -------------------------------------------------------------------------------
                             SWR1 OUTPUT PRINT TIMES
                        STRESS PERIOD   10   TIME STEP    13
 --------------- --------------- --------------- --------------- ---------------
      33960.                                                                    
 -------------------------------------------------------------------------------
 
 SOLVING FOR HEAD 
 INITIAL HNEW IS AN EXACT SOLUTION.

 NO OUTPUT CONTROL FOR STRESS PERIOD   10   TIME STEP   14

 -------------------------------------------------------------------------------
                             SWR1 OUTPUT PRINT TIMES
                        STRESS PERIOD   10   TIME STEP    14
 --------------- --------------- --------------- --------------- ---------------
      34080.                                                                    
 -------------------------------------------------------------------------------
 
 SOLVING FOR HEAD 
 INITIAL HNEW IS AN EXACT SOLUTION.

 NO OUTPUT CONTROL FOR STRESS PERIOD   10   TIME STEP   15

 -------------------------------------------------------------------------------
                             SWR1 OUTPUT PRINT TIMES
                        STRESS PERIOD   10   TIME STEP    15
 --------------- --------------- --------------- --------------- ---------------
      34200.                                                                    
 -------------------------------------------------------------------------------
 
 SOLVING FOR HEAD 
 INITIAL HNEW IS AN EXACT SOLUTION.

 NO OUTPUT CONTROL FOR STRESS PERIOD   10   TIME STEP   16

 -------------------------------------------------------------------------------
                             SWR1 OUTPUT PRINT TIMES
                        STRESS PERIOD   10   TIME STEP    16
 --------------- --------------- --------------- --------------- ---------------
      34320.                                                                    
 -------------------------------------------------------------------------------
 
 SOLVING FOR HEAD 
 INITIAL HNEW IS AN EXACT SOLUTION.

 NO OUTPUT CONTROL FOR STRESS PERIOD   10   TIME STEP   17

 -------------------------------------------------------------------------------
                             SWR1 OUTPUT PRINT TIMES
                        STRESS PERIOD   10   TIME STEP    17
 --------------- --------------- --------------- --------------- ---------------
      34440.                                                                    
 -------------------------------------------------------------------------------
 
 SOLVING FOR HEAD 
 INITIAL HNEW IS AN EXACT SOLUTION.

 NO OUTPUT CONTROL FOR STRESS PERIOD   10   TIME STEP   18

 -------------------------------------------------------------------------------
                             SWR1 OUTPUT PRINT TIMES
                        STRESS PERIOD   10   TIME STEP    18
 --------------- --------------- --------------- --------------- ---------------
      34560.                                                                    
 -------------------------------------------------------------------------------
 
 SOLVING FOR HEAD 
 INITIAL HNEW IS AN EXACT SOLUTION.

 NO OUTPUT CONTROL FOR STRESS PERIOD   10   TIME STEP   19

 -------------------------------------------------------------------------------
                             SWR1 OUTPUT PRINT TIMES
                        STRESS PERIOD   10   TIME STEP    19
 --------------- --------------- --------------- --------------- ---------------
      34680.                                                                    
 -------------------------------------------------------------------------------
 
 SOLVING FOR HEAD 
 INITIAL HNEW IS AN EXACT SOLUTION.

 NO OUTPUT CONTROL FOR STRESS PERIOD   10   TIME STEP   20

 -------------------------------------------------------------------------------
                             SWR1 OUTPUT PRINT TIMES
                        STRESS PERIOD   10   TIME STEP    20
 --------------- --------------- --------------- --------------- ---------------
      34800.                                                                    
 -------------------------------------------------------------------------------
 
 SOLVING FOR HEAD 
 INITIAL HNEW IS AN EXACT SOLUTION.

 NO OUTPUT CONTROL FOR STRESS PERIOD   10   TIME STEP   21

 -------------------------------------------------------------------------------
                             SWR1 OUTPUT PRINT TIMES
                        STRESS PERIOD   10   TIME STEP    21
 --------------- --------------- --------------- --------------- ---------------
      34920.                                                                    
 -------------------------------------------------------------------------------
 
 SOLVING FOR HEAD 
 INITIAL HNEW IS AN EXACT SOLUTION.

 NO OUTPUT CONTROL FOR STRESS PERIOD   10   TIME STEP   22

 -------------------------------------------------------------------------------
                             SWR1 OUTPUT PRINT TIMES
                        STRESS PERIOD   10   TIME STEP    22
 --------------- --------------- --------------- --------------- ---------------
      35040.                                                                    
 -------------------------------------------------------------------------------
 
 SOLVING FOR HEAD 
 INITIAL HNEW IS AN EXACT SOLUTION.

 NO OUTPUT CONTROL FOR STRESS PERIOD   10   TIME STEP   23

 -------------------------------------------------------------------------------
                             SWR1 OUTPUT PRINT TIMES
                        STRESS PERIOD   10   TIME STEP    23
 --------------- --------------- --------------- --------------- ---------------
      35160.                                                                    
 -------------------------------------------------------------------------------
 
 SOLVING FOR HEAD 
 INITIAL HNEW IS AN EXACT SOLUTION.

 NO OUTPUT CONTROL FOR STRESS PERIOD   10   TIME STEP   24

 -------------------------------------------------------------------------------
                             SWR1 OUTPUT PRINT TIMES
                        STRESS PERIOD   10   TIME STEP    24
 --------------- --------------- --------------- --------------- ---------------
      35280.                                                                    
 -------------------------------------------------------------------------------
 
 SOLVING FOR HEAD 
 INITIAL HNEW IS AN EXACT SOLUTION.

 NO OUTPUT CONTROL FOR STRESS PERIOD   10   TIME STEP   25

 -------------------------------------------------------------------------------
                             SWR1 OUTPUT PRINT TIMES
                        STRESS PERIOD   10   TIME STEP    25
 --------------- --------------- --------------- --------------- ---------------
      35400.                                                                    
 -------------------------------------------------------------------------------
 
 SOLVING FOR HEAD 
 INITIAL HNEW IS AN EXACT SOLUTION.

 NO OUTPUT CONTROL FOR STRESS PERIOD   10   TIME STEP   26

 -------------------------------------------------------------------------------
                             SWR1 OUTPUT PRINT TIMES
                        STRESS PERIOD   10   TIME STEP    26
 --------------- --------------- --------------- --------------- ---------------
      35520.                                                                    
 -------------------------------------------------------------------------------
 
 SOLVING FOR HEAD 
 INITIAL HNEW IS AN EXACT SOLUTION.

 NO OUTPUT CONTROL FOR STRESS PERIOD   10   TIME STEP   27

 -------------------------------------------------------------------------------
                             SWR1 OUTPUT PRINT TIMES
                        STRESS PERIOD   10   TIME STEP    27
 --------------- --------------- --------------- --------------- ---------------
      35640.                                                                    
 -------------------------------------------------------------------------------
 
 SOLVING FOR HEAD 
 INITIAL HNEW IS AN EXACT SOLUTION.

 NO OUTPUT CONTROL FOR STRESS PERIOD   10   TIME STEP   28

 -------------------------------------------------------------------------------
                             SWR1 OUTPUT PRINT TIMES
                        STRESS PERIOD   10   TIME STEP    28
 --------------- --------------- --------------- --------------- ---------------
      35760.                                                                    
 -------------------------------------------------------------------------------
 
 SOLVING FOR HEAD 
 INITIAL HNEW IS AN EXACT SOLUTION.

 NO OUTPUT CONTROL FOR STRESS PERIOD   10   TIME STEP   29

 -------------------------------------------------------------------------------
                             SWR1 OUTPUT PRINT TIMES
                        STRESS PERIOD   10   TIME STEP    29
 --------------- --------------- --------------- --------------- ---------------
      35880.                                                                    
 -------------------------------------------------------------------------------
 
 SOLVING FOR HEAD 
 INITIAL HNEW IS AN EXACT SOLUTION.

 NO OUTPUT CONTROL FOR STRESS PERIOD   10   TIME STEP   30

 -------------------------------------------------------------------------------
                             SWR1 OUTPUT PRINT TIMES
                        STRESS PERIOD   10   TIME STEP    30
 --------------- --------------- --------------- --------------- ---------------
      36000.                                                                    
 -------------------------------------------------------------------------------


                    VOLUMETRIC SURFACE WATER BUDGET FOR ENTIRE MODEL
                    AT END OF TIME STEP    30 IN STRESS PERIOD   10
  -----------------------------------------------------------------------------------

        CUMULATIVE VOLUMES      L**3       RATES FOR THIS TIME STEP      L**3/T
        ------------------                 ------------------------

              IN:                                      IN:
              ---                                      ---
          LATERAL FLOW  =       95236.5547         LATERAL FLOW  =          14.2252
         UNSAT. RUNOFF  =           0.0000        UNSAT. RUNOFF  =           0.0000
              RAINFALL  =      138528.6562             RAINFALL  =          20.6920
           EVAPORATION  =           0.0000          EVAPORATION  =           0.0000
         REACH-AQ FLOW  =           0.0000        REACH-AQ FLOW  =           0.0000
         EXTERNAL FLOW  =           0.0000        EXTERNAL FLOW  =           0.0000
         BOUNDARY FLOW  =           0.0000        BOUNDARY FLOW  =           0.0000
         CONSTANT FLOW  =           0.0000        CONSTANT FLOW  =           0.0000
               STORAGE  =       12513.1250              STORAGE  =       4.6868E-02

               TOTAL IN =      246278.3438              TOTAL IN =          34.9641

             OUT:                                     OUT:
             ----                                     ----
          LATERAL FLOW  =           0.0000         LATERAL FLOW  =           0.0000
         UNSAT. RUNOFF  =           0.0000        UNSAT. RUNOFF  =           0.0000
              RAINFALL  =           0.0000             RAINFALL  =           0.0000
           EVAPORATION  =           0.0000          EVAPORATION  =           0.0000
         REACH-AQ FLOW  =           0.0000        REACH-AQ FLOW  =           0.0000
         EXTERNAL FLOW  =           0.0000        EXTERNAL FLOW  =           0.0000
         BOUNDARY FLOW  =           0.0000        BOUNDARY FLOW  =           0.0000
         CONSTANT FLOW  =       21487.9121        CONSTANT FLOW  =           0.5970
               STORAGE  =      224791.7969              STORAGE  =          34.3674

              TOTAL OUT =      246279.7031             TOTAL OUT =          34.9644

               IN - OUT =          -1.3594              IN - OUT =      -3.0518E-04

    PERCENT DISCREPANCY =           0.00     PERCENT DISCREPANCY =           0.00

1
  VOLUMETRIC BUDGET FOR ENTIRE MODEL AT END OF TIME STEP   30, STRESS PERIOD  10
  ------------------------------------------------------------------------------

     CUMULATIVE VOLUMES      L**3       RATES FOR THIS TIME STEP      L**3/T
     ------------------                 ------------------------

           IN:                                      IN:
           ---                                      ---
             STORAGE =           0.0000               STORAGE =           0.0000
       CONSTANT HEAD =           0.0000         CONSTANT HEAD =           0.0000
         SWR LEAKAGE =           0.0000           SWR LEAKAGE =           0.0000
            SWR GWET =           0.0000              SWR GWET =           0.0000

            TOTAL IN =           0.0000              TOTAL IN =           0.0000

          OUT:                                     OUT:
          ----                                     ----
             STORAGE =           0.0000               STORAGE =           0.0000
       CONSTANT HEAD =           0.0000         CONSTANT HEAD =           0.0000
         SWR LEAKAGE =           0.0000           SWR LEAKAGE =           0.0000
            SWR GWET =           0.0000              SWR GWET =           0.0000

           TOTAL OUT =           0.0000             TOTAL OUT =           0.0000

            IN - OUT =           0.0000              IN - OUT =           0.0000

 PERCENT DISCREPANCY =           0.00     PERCENT DISCREPANCY =           0.00






         TIME SUMMARY AT END OF TIME STEP   30 IN STRESS PERIOD   10
                    SECONDS     MINUTES      HOURS       DAYS        YEARS
                    -----------------------------------------------------------
   TIME STEP LENGTH  120.00      2.0000     3.33333E-02 1.38889E-03 3.80257E-06
 STRESS PERIOD TIME  3600.0      60.000      1.0000     4.16667E-02 1.14077E-04
         TOTAL TIME  36000.      600.00      10.000     0.41667     1.14077E-03
1
1
                            STRESS PERIOD NO.   11, LENGTH =   3600.000    
                            -----------------------------------------------

                              NUMBER OF TIME STEPS =    30

                               MULTIPLIER FOR DELT =     1.000

                            INITIAL TIME STEP SIZE =   120.0000    

 ...READING SWR1 PROCESS DATASET 5

 ...READING SWR1 PROCESS DATASET 7B



                   2D RAINFALL DATA
 READING ON UNIT   61 WITH FORMAT: (11E12.4)           

           1          2          3          4          5          6          7          8          9         10         11
 .........................................................................................................................
   1    0.00       0.00       0.00       0.00       0.00       0.00       0.00       0.00       0.00       0.00       0.00    
   2    0.00       0.00       0.00       0.00       0.00       0.00       0.00       0.00       0.00       0.00       0.00    
   3    0.00       0.00       0.00       0.00       0.00       0.00       0.00       0.00       0.00       0.00       0.00    
   4    0.00       0.00       0.00       0.00      8.237E-06  8.237E-06  8.237E-06   0.00       0.00       0.00       0.00    
   5    0.00       0.00       0.00       0.00      8.237E-06  8.237E-06  8.237E-06   0.00       0.00       0.00       0.00    
   6    0.00       0.00       0.00      8.237E-06  8.237E-06  8.237E-06  8.237E-06   0.00       0.00       0.00       0.00    
   7    0.00       0.00       0.00       0.00      8.237E-06  8.237E-06  8.237E-06   0.00       0.00       0.00       0.00    
   8    0.00       0.00       0.00       0.00      8.237E-06  8.237E-06  8.237E-06   0.00       0.00       0.00       0.00    
   9    0.00       0.00       0.00       0.00       0.00       0.00       0.00       0.00       0.00       0.00       0.00    
  10    0.00       0.00       0.00       0.00       0.00       0.00       0.00       0.00       0.00       0.00       0.00    
  11    0.00       0.00       0.00       0.00       0.00       0.00       0.00       0.00       0.00       0.00       0.00    

 ...READING SWR1 PROCESS DATASET 9B



             2D LATERAL INFLOW DATA
 READING ON UNIT   61 WITH FORMAT: (11E12.4)           

           1          2          3          4          5          6          7          8          9         10         11
 .........................................................................................................................
   1    2.06       0.00       0.00       0.00       0.00       0.00       0.00       0.00       0.00       0.00       0.00    
   2    2.06       0.00       0.00       0.00       0.00       0.00       0.00       0.00       0.00       0.00       0.00    
   3    2.06       0.00       0.00       0.00       0.00       0.00       0.00       0.00       0.00       0.00       0.00    
   4    2.06       0.00       0.00       0.00       0.00       0.00       0.00       0.00       0.00       0.00       0.00    
   5    2.06       0.00       0.00       0.00       0.00       0.00       0.00       0.00       0.00       0.00       0.00    
   6    2.06       0.00       0.00       0.00       0.00       0.00       0.00       0.00       0.00       0.00       0.00    
   7    2.06       0.00       0.00       0.00       0.00       0.00       0.00       0.00       0.00       0.00       0.00    
   8    2.06       0.00       0.00       0.00       0.00       0.00       0.00       0.00       0.00       0.00       0.00    
   9    2.06       0.00       0.00       0.00       0.00       0.00       0.00       0.00       0.00       0.00       0.00    
  10    2.06       0.00       0.00       0.00       0.00       0.00       0.00       0.00       0.00       0.00       0.00    
  11    2.06       0.00       0.00       0.00       0.00       0.00       0.00       0.00       0.00       0.00       0.00    
 
 SOLVING FOR HEAD 
 INITIAL HNEW IS AN EXACT SOLUTION.

 OUTPUT CONTROL FOR STRESS PERIOD   11   TIME STEP    1
    SAVE BUDGET

 -------------------------------------------------------------------------------
                             SWR1 OUTPUT PRINT TIMES
                        STRESS PERIOD   11   TIME STEP     1
 --------------- --------------- --------------- --------------- ---------------
      36120.                                                                    
 -------------------------------------------------------------------------------
 
 SOLVING FOR HEAD 
 INITIAL HNEW IS AN EXACT SOLUTION.

 NO OUTPUT CONTROL FOR STRESS PERIOD   11   TIME STEP    2

 -------------------------------------------------------------------------------
                             SWR1 OUTPUT PRINT TIMES
                        STRESS PERIOD   11   TIME STEP     2
 --------------- --------------- --------------- --------------- ---------------
      36240.                                                                    
 -------------------------------------------------------------------------------
 
 SOLVING FOR HEAD 
 INITIAL HNEW IS AN EXACT SOLUTION.

 NO OUTPUT CONTROL FOR STRESS PERIOD   11   TIME STEP    3

 -------------------------------------------------------------------------------
                             SWR1 OUTPUT PRINT TIMES
                        STRESS PERIOD   11   TIME STEP     3
 --------------- --------------- --------------- --------------- ---------------
      36360.                                                                    
 -------------------------------------------------------------------------------
 
 SOLVING FOR HEAD 
 INITIAL HNEW IS AN EXACT SOLUTION.

 NO OUTPUT CONTROL FOR STRESS PERIOD   11   TIME STEP    4

 -------------------------------------------------------------------------------
                             SWR1 OUTPUT PRINT TIMES
                        STRESS PERIOD   11   TIME STEP     4
 --------------- --------------- --------------- --------------- ---------------
      36480.                                                                    
 -------------------------------------------------------------------------------
 
 SOLVING FOR HEAD 
 INITIAL HNEW IS AN EXACT SOLUTION.

 NO OUTPUT CONTROL FOR STRESS PERIOD   11   TIME STEP    5

 -------------------------------------------------------------------------------
                             SWR1 OUTPUT PRINT TIMES
                        STRESS PERIOD   11   TIME STEP     5
 --------------- --------------- --------------- --------------- ---------------
      36600.                                                                    
 -------------------------------------------------------------------------------
 
 SOLVING FOR HEAD 
 INITIAL HNEW IS AN EXACT SOLUTION.

 NO OUTPUT CONTROL FOR STRESS PERIOD   11   TIME STEP    6

 -------------------------------------------------------------------------------
                             SWR1 OUTPUT PRINT TIMES
                        STRESS PERIOD   11   TIME STEP     6
 --------------- --------------- --------------- --------------- ---------------
      36720.                                                                    
 -------------------------------------------------------------------------------
 
 SOLVING FOR HEAD 
 INITIAL HNEW IS AN EXACT SOLUTION.

 NO OUTPUT CONTROL FOR STRESS PERIOD   11   TIME STEP    7

 -------------------------------------------------------------------------------
                             SWR1 OUTPUT PRINT TIMES
                        STRESS PERIOD   11   TIME STEP     7
 --------------- --------------- --------------- --------------- ---------------
      36840.                                                                    
 -------------------------------------------------------------------------------
 
 SOLVING FOR HEAD 
 INITIAL HNEW IS AN EXACT SOLUTION.

 NO OUTPUT CONTROL FOR STRESS PERIOD   11   TIME STEP    8

 -------------------------------------------------------------------------------
                             SWR1 OUTPUT PRINT TIMES
                        STRESS PERIOD   11   TIME STEP     8
 --------------- --------------- --------------- --------------- ---------------
      36960.                                                                    
 -------------------------------------------------------------------------------
 
 SOLVING FOR HEAD 
 INITIAL HNEW IS AN EXACT SOLUTION.

 NO OUTPUT CONTROL FOR STRESS PERIOD   11   TIME STEP    9

 -------------------------------------------------------------------------------
                             SWR1 OUTPUT PRINT TIMES
                        STRESS PERIOD   11   TIME STEP     9
 --------------- --------------- --------------- --------------- ---------------
      37080.                                                                    
 -------------------------------------------------------------------------------
 
 SOLVING FOR HEAD 
 INITIAL HNEW IS AN EXACT SOLUTION.

 NO OUTPUT CONTROL FOR STRESS PERIOD   11   TIME STEP   10

 -------------------------------------------------------------------------------
                             SWR1 OUTPUT PRINT TIMES
                        STRESS PERIOD   11   TIME STEP    10
 --------------- --------------- --------------- --------------- ---------------
      37200.                                                                    
 -------------------------------------------------------------------------------
 
 SOLVING FOR HEAD 
 INITIAL HNEW IS AN EXACT SOLUTION.

 NO OUTPUT CONTROL FOR STRESS PERIOD   11   TIME STEP   11

 -------------------------------------------------------------------------------
                             SWR1 OUTPUT PRINT TIMES
                        STRESS PERIOD   11   TIME STEP    11
 --------------- --------------- --------------- --------------- ---------------
      37320.                                                                    
 -------------------------------------------------------------------------------
 
 SOLVING FOR HEAD 
 INITIAL HNEW IS AN EXACT SOLUTION.

 NO OUTPUT CONTROL FOR STRESS PERIOD   11   TIME STEP   12

 -------------------------------------------------------------------------------
                             SWR1 OUTPUT PRINT TIMES
                        STRESS PERIOD   11   TIME STEP    12
 --------------- --------------- --------------- --------------- ---------------
      37440.                                                                    
 -------------------------------------------------------------------------------
 
 SOLVING FOR HEAD 
 INITIAL HNEW IS AN EXACT SOLUTION.

 NO OUTPUT CONTROL FOR STRESS PERIOD   11   TIME STEP   13

 -------------------------------------------------------------------------------
                             SWR1 OUTPUT PRINT TIMES
                        STRESS PERIOD   11   TIME STEP    13
 --------------- --------------- --------------- --------------- ---------------
      37560.                                                                    
 -------------------------------------------------------------------------------
 
 SOLVING FOR HEAD 
 INITIAL HNEW IS AN EXACT SOLUTION.

 NO OUTPUT CONTROL FOR STRESS PERIOD   11   TIME STEP   14

 -------------------------------------------------------------------------------
                             SWR1 OUTPUT PRINT TIMES
                        STRESS PERIOD   11   TIME STEP    14
 --------------- --------------- --------------- --------------- ---------------
      37680.                                                                    
 -------------------------------------------------------------------------------
 
 SOLVING FOR HEAD 
 INITIAL HNEW IS AN EXACT SOLUTION.

 NO OUTPUT CONTROL FOR STRESS PERIOD   11   TIME STEP   15

 -------------------------------------------------------------------------------
                             SWR1 OUTPUT PRINT TIMES
                        STRESS PERIOD   11   TIME STEP    15
 --------------- --------------- --------------- --------------- ---------------
      37800.                                                                    
 -------------------------------------------------------------------------------
 
 SOLVING FOR HEAD 
 INITIAL HNEW IS AN EXACT SOLUTION.

 NO OUTPUT CONTROL FOR STRESS PERIOD   11   TIME STEP   16

 -------------------------------------------------------------------------------
                             SWR1 OUTPUT PRINT TIMES
                        STRESS PERIOD   11   TIME STEP    16
 --------------- --------------- --------------- --------------- ---------------
      37920.                                                                    
 -------------------------------------------------------------------------------
 
 SOLVING FOR HEAD 
 INITIAL HNEW IS AN EXACT SOLUTION.

 NO OUTPUT CONTROL FOR STRESS PERIOD   11   TIME STEP   17

 -------------------------------------------------------------------------------
                             SWR1 OUTPUT PRINT TIMES
                        STRESS PERIOD   11   TIME STEP    17
 --------------- --------------- --------------- --------------- ---------------
      38040.                                                                    
 -------------------------------------------------------------------------------
 
 SOLVING FOR HEAD 
 INITIAL HNEW IS AN EXACT SOLUTION.

 NO OUTPUT CONTROL FOR STRESS PERIOD   11   TIME STEP   18

 -------------------------------------------------------------------------------
                             SWR1 OUTPUT PRINT TIMES
                        STRESS PERIOD   11   TIME STEP    18
 --------------- --------------- --------------- --------------- ---------------
      38160.                                                                    
 -------------------------------------------------------------------------------
 
 SOLVING FOR HEAD 
 INITIAL HNEW IS AN EXACT SOLUTION.

 NO OUTPUT CONTROL FOR STRESS PERIOD   11   TIME STEP   19

 -------------------------------------------------------------------------------
                             SWR1 OUTPUT PRINT TIMES
                        STRESS PERIOD   11   TIME STEP    19
 --------------- --------------- --------------- --------------- ---------------
      38280.                                                                    
 -------------------------------------------------------------------------------
 
 SOLVING FOR HEAD 
 INITIAL HNEW IS AN EXACT SOLUTION.

 NO OUTPUT CONTROL FOR STRESS PERIOD   11   TIME STEP   20

 -------------------------------------------------------------------------------
                             SWR1 OUTPUT PRINT TIMES
                        STRESS PERIOD   11   TIME STEP    20
 --------------- --------------- --------------- --------------- ---------------
      38400.                                                                    
 -------------------------------------------------------------------------------
 
 SOLVING FOR HEAD 
 INITIAL HNEW IS AN EXACT SOLUTION.

 NO OUTPUT CONTROL FOR STRESS PERIOD   11   TIME STEP   21

 -------------------------------------------------------------------------------
                             SWR1 OUTPUT PRINT TIMES
                        STRESS PERIOD   11   TIME STEP    21
 --------------- --------------- --------------- --------------- ---------------
      38520.                                                                    
 -------------------------------------------------------------------------------
 
 SOLVING FOR HEAD 
 INITIAL HNEW IS AN EXACT SOLUTION.

 NO OUTPUT CONTROL FOR STRESS PERIOD   11   TIME STEP   22

 -------------------------------------------------------------------------------
                             SWR1 OUTPUT PRINT TIMES
                        STRESS PERIOD   11   TIME STEP    22
 --------------- --------------- --------------- --------------- ---------------
      38640.                                                                    
 -------------------------------------------------------------------------------
 
 SOLVING FOR HEAD 
 INITIAL HNEW IS AN EXACT SOLUTION.

 NO OUTPUT CONTROL FOR STRESS PERIOD   11   TIME STEP   23

 -------------------------------------------------------------------------------
                             SWR1 OUTPUT PRINT TIMES
                        STRESS PERIOD   11   TIME STEP    23
 --------------- --------------- --------------- --------------- ---------------
      38760.                                                                    
 -------------------------------------------------------------------------------
 
 SOLVING FOR HEAD 
 INITIAL HNEW IS AN EXACT SOLUTION.

 NO OUTPUT CONTROL FOR STRESS PERIOD   11   TIME STEP   24

 -------------------------------------------------------------------------------
                             SWR1 OUTPUT PRINT TIMES
                        STRESS PERIOD   11   TIME STEP    24
 --------------- --------------- --------------- --------------- ---------------
      38880.                                                                    
 -------------------------------------------------------------------------------
 
 SOLVING FOR HEAD 
 INITIAL HNEW IS AN EXACT SOLUTION.

 NO OUTPUT CONTROL FOR STRESS PERIOD   11   TIME STEP   25

 -------------------------------------------------------------------------------
                             SWR1 OUTPUT PRINT TIMES
                        STRESS PERIOD   11   TIME STEP    25
 --------------- --------------- --------------- --------------- ---------------
      39000.                                                                    
 -------------------------------------------------------------------------------
 
 SOLVING FOR HEAD 
 INITIAL HNEW IS AN EXACT SOLUTION.

 NO OUTPUT CONTROL FOR STRESS PERIOD   11   TIME STEP   26

 -------------------------------------------------------------------------------
                             SWR1 OUTPUT PRINT TIMES
                        STRESS PERIOD   11   TIME STEP    26
 --------------- --------------- --------------- --------------- ---------------
      39120.                                                                    
 -------------------------------------------------------------------------------
 
 SOLVING FOR HEAD 
 INITIAL HNEW IS AN EXACT SOLUTION.

 NO OUTPUT CONTROL FOR STRESS PERIOD   11   TIME STEP   27

 -------------------------------------------------------------------------------
                             SWR1 OUTPUT PRINT TIMES
                        STRESS PERIOD   11   TIME STEP    27
 --------------- --------------- --------------- --------------- ---------------
      39240.                                                                    
 -------------------------------------------------------------------------------
 
 SOLVING FOR HEAD 
 INITIAL HNEW IS AN EXACT SOLUTION.

 NO OUTPUT CONTROL FOR STRESS PERIOD   11   TIME STEP   28

 -------------------------------------------------------------------------------
                             SWR1 OUTPUT PRINT TIMES
                        STRESS PERIOD   11   TIME STEP    28
 --------------- --------------- --------------- --------------- ---------------
      39360.                                                                    
 -------------------------------------------------------------------------------
 
 SOLVING FOR HEAD 
 INITIAL HNEW IS AN EXACT SOLUTION.

 NO OUTPUT CONTROL FOR STRESS PERIOD   11   TIME STEP   29

 -------------------------------------------------------------------------------
                             SWR1 OUTPUT PRINT TIMES
                        STRESS PERIOD   11   TIME STEP    29
 --------------- --------------- --------------- --------------- ---------------
      39480.                                                                    
 -------------------------------------------------------------------------------
 
 SOLVING FOR HEAD 
 INITIAL HNEW IS AN EXACT SOLUTION.

 NO OUTPUT CONTROL FOR STRESS PERIOD   11   TIME STEP   30

 -------------------------------------------------------------------------------
                             SWR1 OUTPUT PRINT TIMES
                        STRESS PERIOD   11   TIME STEP    30
 --------------- --------------- --------------- --------------- ---------------
      39600.                                                                    
 -------------------------------------------------------------------------------


                    VOLUMETRIC SURFACE WATER BUDGET FOR ENTIRE MODEL
                    AT END OF TIME STEP    30 IN STRESS PERIOD   11
  -----------------------------------------------------------------------------------

        CUMULATIVE VOLUMES      L**3       RATES FOR THIS TIME STEP      L**3/T
        ------------------                 ------------------------

              IN:                                      IN:
              ---                                      ---
          LATERAL FLOW  =      176784.8906         LATERAL FLOW  =          22.6523
         UNSAT. RUNOFF  =           0.0000        UNSAT. RUNOFF  =           0.0000
              RAINFALL  =      257145.8438             RAINFALL  =          32.9492
           EVAPORATION  =           0.0000          EVAPORATION  =           0.0000
         REACH-AQ FLOW  =           0.0000        REACH-AQ FLOW  =           0.0000
         EXTERNAL FLOW  =           0.0000        EXTERNAL FLOW  =           0.0000
         BOUNDARY FLOW  =           0.0000        BOUNDARY FLOW  =           0.0000
         CONSTANT FLOW  =           0.0000        CONSTANT FLOW  =           0.0000
               STORAGE  =       12680.3105              STORAGE  =       3.7480E-02

               TOTAL IN =      446611.0625              TOTAL IN =          55.6390

             OUT:                                     OUT:
             ----                                     ----
          LATERAL FLOW  =           0.0000         LATERAL FLOW  =           0.0000
         UNSAT. RUNOFF  =           0.0000        UNSAT. RUNOFF  =           0.0000
              RAINFALL  =           0.0000             RAINFALL  =           0.0000
           EVAPORATION  =           0.0000          EVAPORATION  =           0.0000
         REACH-AQ FLOW  =           0.0000        REACH-AQ FLOW  =           0.0000
         EXTERNAL FLOW  =           0.0000        EXTERNAL FLOW  =           0.0000
         BOUNDARY FLOW  =           0.0000        BOUNDARY FLOW  =           0.0000
         CONSTANT FLOW  =       23637.5566        CONSTANT FLOW  =           0.5973
               STORAGE  =      422974.5938              STORAGE  =          55.0416

              TOTAL OUT =      446612.1562             TOTAL OUT =          55.6389

               IN - OUT =          -1.0938              IN - OUT =       8.0109E-05

    PERCENT DISCREPANCY =           0.00     PERCENT DISCREPANCY =           0.00

1
  VOLUMETRIC BUDGET FOR ENTIRE MODEL AT END OF TIME STEP   30, STRESS PERIOD  11
  ------------------------------------------------------------------------------

     CUMULATIVE VOLUMES      L**3       RATES FOR THIS TIME STEP      L**3/T
     ------------------                 ------------------------

           IN:                                      IN:
           ---                                      ---
             STORAGE =           0.0000               STORAGE =           0.0000
       CONSTANT HEAD =           0.0000         CONSTANT HEAD =           0.0000
         SWR LEAKAGE =           0.0000           SWR LEAKAGE =           0.0000
            SWR GWET =           0.0000              SWR GWET =           0.0000

            TOTAL IN =           0.0000              TOTAL IN =           0.0000

          OUT:                                     OUT:
          ----                                     ----
             STORAGE =           0.0000               STORAGE =           0.0000
       CONSTANT HEAD =           0.0000         CONSTANT HEAD =           0.0000
         SWR LEAKAGE =           0.0000           SWR LEAKAGE =           0.0000
            SWR GWET =           0.0000              SWR GWET =           0.0000

           TOTAL OUT =           0.0000             TOTAL OUT =           0.0000

            IN - OUT =           0.0000              IN - OUT =           0.0000

 PERCENT DISCREPANCY =           0.00     PERCENT DISCREPANCY =           0.00






         TIME SUMMARY AT END OF TIME STEP   30 IN STRESS PERIOD   11
                    SECONDS     MINUTES      HOURS       DAYS        YEARS
                    -----------------------------------------------------------
   TIME STEP LENGTH  120.00      2.0000     3.33333E-02 1.38889E-03 3.80257E-06
 STRESS PERIOD TIME  3600.0      60.000      1.0000     4.16667E-02 1.14077E-04
         TOTAL TIME  39600.      660.00      11.000     0.45833     1.25485E-03
1
1
                            STRESS PERIOD NO.   12, LENGTH =   3600.000    
                            -----------------------------------------------

                              NUMBER OF TIME STEPS =    30

                               MULTIPLIER FOR DELT =     1.000

                            INITIAL TIME STEP SIZE =   120.0000    

 ...READING SWR1 PROCESS DATASET 5

 ...READING SWR1 PROCESS DATASET 7B



                   2D RAINFALL DATA
 READING ON UNIT   61 WITH FORMAT: (11E12.4)           

           1          2          3          4          5          6          7          8          9         10         11
 .........................................................................................................................
   1    0.00       0.00       0.00       0.00       0.00       0.00       0.00       0.00       0.00       0.00       0.00    
   2    0.00       0.00       0.00       0.00       0.00       0.00       0.00       0.00       0.00       0.00       0.00    
   3    0.00       0.00       0.00       0.00       0.00       0.00       0.00       0.00       0.00       0.00       0.00    
   4    0.00       0.00       0.00       0.00      1.089E-05  1.089E-05  1.089E-05   0.00       0.00       0.00       0.00    
   5    0.00       0.00       0.00       0.00      1.089E-05  1.089E-05  1.089E-05   0.00       0.00       0.00       0.00    
   6    0.00       0.00       0.00      1.089E-05  1.089E-05  1.089E-05  1.089E-05   0.00       0.00       0.00       0.00    
   7    0.00       0.00       0.00       0.00      1.089E-05  1.089E-05  1.089E-05   0.00       0.00       0.00       0.00    
   8    0.00       0.00       0.00       0.00      1.089E-05  1.089E-05  1.089E-05   0.00       0.00       0.00       0.00    
   9    0.00       0.00       0.00       0.00       0.00       0.00       0.00       0.00       0.00       0.00       0.00    
  10    0.00       0.00       0.00       0.00       0.00       0.00       0.00       0.00       0.00       0.00       0.00    
  11    0.00       0.00       0.00       0.00       0.00       0.00       0.00       0.00       0.00       0.00       0.00    

 ...READING SWR1 PROCESS DATASET 9B



             2D LATERAL INFLOW DATA
 READING ON UNIT   61 WITH FORMAT: (11E12.4)           

           1          2          3          4          5          6          7          8          9         10         11
 .........................................................................................................................
   1    2.72       0.00       0.00       0.00       0.00       0.00       0.00       0.00       0.00       0.00       0.00    
   2    2.72       0.00       0.00       0.00       0.00       0.00       0.00       0.00       0.00       0.00       0.00    
   3    2.72       0.00       0.00       0.00       0.00       0.00       0.00       0.00       0.00       0.00       0.00    
   4    2.72       0.00       0.00       0.00       0.00       0.00       0.00       0.00       0.00       0.00       0.00    
   5    2.72       0.00       0.00       0.00       0.00       0.00       0.00       0.00       0.00       0.00       0.00    
   6    2.72       0.00       0.00       0.00       0.00       0.00       0.00       0.00       0.00       0.00       0.00    
   7    2.72       0.00       0.00       0.00       0.00       0.00       0.00       0.00       0.00       0.00       0.00    
   8    2.72       0.00       0.00       0.00       0.00       0.00       0.00       0.00       0.00       0.00       0.00    
   9    2.72       0.00       0.00       0.00       0.00       0.00       0.00       0.00       0.00       0.00       0.00    
  10    2.72       0.00       0.00       0.00       0.00       0.00       0.00       0.00       0.00       0.00       0.00    
  11    2.72       0.00       0.00       0.00       0.00       0.00       0.00       0.00       0.00       0.00       0.00    
 
 SOLVING FOR HEAD 
 INITIAL HNEW IS AN EXACT SOLUTION.

 OUTPUT CONTROL FOR STRESS PERIOD   12   TIME STEP    1
    SAVE BUDGET

 -------------------------------------------------------------------------------
                             SWR1 OUTPUT PRINT TIMES
                        STRESS PERIOD   12   TIME STEP     1
 --------------- --------------- --------------- --------------- ---------------
      39720.                                                                    
 -------------------------------------------------------------------------------
 
 SOLVING FOR HEAD 
 INITIAL HNEW IS AN EXACT SOLUTION.

 NO OUTPUT CONTROL FOR STRESS PERIOD   12   TIME STEP    2

 -------------------------------------------------------------------------------
                             SWR1 OUTPUT PRINT TIMES
                        STRESS PERIOD   12   TIME STEP     2
 --------------- --------------- --------------- --------------- ---------------
      39840.                                                                    
 -------------------------------------------------------------------------------
 
 SOLVING FOR HEAD 
 INITIAL HNEW IS AN EXACT SOLUTION.

 NO OUTPUT CONTROL FOR STRESS PERIOD   12   TIME STEP    3

 -------------------------------------------------------------------------------
                             SWR1 OUTPUT PRINT TIMES
                        STRESS PERIOD   12   TIME STEP     3
 --------------- --------------- --------------- --------------- ---------------
      39960.                                                                    
 -------------------------------------------------------------------------------
 
 SOLVING FOR HEAD 
 INITIAL HNEW IS AN EXACT SOLUTION.

 NO OUTPUT CONTROL FOR STRESS PERIOD   12   TIME STEP    4

 -------------------------------------------------------------------------------
                             SWR1 OUTPUT PRINT TIMES
                        STRESS PERIOD   12   TIME STEP     4
 --------------- --------------- --------------- --------------- ---------------
      40080.                                                                    
 -------------------------------------------------------------------------------
 
 SOLVING FOR HEAD 
 INITIAL HNEW IS AN EXACT SOLUTION.

 NO OUTPUT CONTROL FOR STRESS PERIOD   12   TIME STEP    5

 -------------------------------------------------------------------------------
                             SWR1 OUTPUT PRINT TIMES
                        STRESS PERIOD   12   TIME STEP     5
 --------------- --------------- --------------- --------------- ---------------
      40200.                                                                    
 -------------------------------------------------------------------------------
 
 SOLVING FOR HEAD 
 INITIAL HNEW IS AN EXACT SOLUTION.

 NO OUTPUT CONTROL FOR STRESS PERIOD   12   TIME STEP    6

 -------------------------------------------------------------------------------
                             SWR1 OUTPUT PRINT TIMES
                        STRESS PERIOD   12   TIME STEP     6
 --------------- --------------- --------------- --------------- ---------------
      40320.                                                                    
 -------------------------------------------------------------------------------
 
 SOLVING FOR HEAD 
 INITIAL HNEW IS AN EXACT SOLUTION.

 NO OUTPUT CONTROL FOR STRESS PERIOD   12   TIME STEP    7

 -------------------------------------------------------------------------------
                             SWR1 OUTPUT PRINT TIMES
                        STRESS PERIOD   12   TIME STEP     7
 --------------- --------------- --------------- --------------- ---------------
      40440.                                                                    
 -------------------------------------------------------------------------------
 
 SOLVING FOR HEAD 
 INITIAL HNEW IS AN EXACT SOLUTION.

 NO OUTPUT CONTROL FOR STRESS PERIOD   12   TIME STEP    8

 -------------------------------------------------------------------------------
                             SWR1 OUTPUT PRINT TIMES
                        STRESS PERIOD   12   TIME STEP     8
 --------------- --------------- --------------- --------------- ---------------
      40560.                                                                    
 -------------------------------------------------------------------------------
 
 SOLVING FOR HEAD 
 INITIAL HNEW IS AN EXACT SOLUTION.

 NO OUTPUT CONTROL FOR STRESS PERIOD   12   TIME STEP    9

 -------------------------------------------------------------------------------
                             SWR1 OUTPUT PRINT TIMES
                        STRESS PERIOD   12   TIME STEP     9
 --------------- --------------- --------------- --------------- ---------------
      40680.                                                                    
 -------------------------------------------------------------------------------
 
 SOLVING FOR HEAD 
 INITIAL HNEW IS AN EXACT SOLUTION.

 NO OUTPUT CONTROL FOR STRESS PERIOD   12   TIME STEP   10

 -------------------------------------------------------------------------------
                             SWR1 OUTPUT PRINT TIMES
                        STRESS PERIOD   12   TIME STEP    10
 --------------- --------------- --------------- --------------- ---------------
      40800.                                                                    
 -------------------------------------------------------------------------------
 
 SOLVING FOR HEAD 
 INITIAL HNEW IS AN EXACT SOLUTION.

 NO OUTPUT CONTROL FOR STRESS PERIOD   12   TIME STEP   11

 -------------------------------------------------------------------------------
                             SWR1 OUTPUT PRINT TIMES
                        STRESS PERIOD   12   TIME STEP    11
 --------------- --------------- --------------- --------------- ---------------
      40920.                                                                    
 -------------------------------------------------------------------------------
 
 SOLVING FOR HEAD 
 INITIAL HNEW IS AN EXACT SOLUTION.

 NO OUTPUT CONTROL FOR STRESS PERIOD   12   TIME STEP   12

 -------------------------------------------------------------------------------
                             SWR1 OUTPUT PRINT TIMES
                        STRESS PERIOD   12   TIME STEP    12
 --------------- --------------- --------------- --------------- ---------------
      41040.                                                                    
 -------------------------------------------------------------------------------
 
 SOLVING FOR HEAD 
 INITIAL HNEW IS AN EXACT SOLUTION.

 NO OUTPUT CONTROL FOR STRESS PERIOD   12   TIME STEP   13

 -------------------------------------------------------------------------------
                             SWR1 OUTPUT PRINT TIMES
                        STRESS PERIOD   12   TIME STEP    13
 --------------- --------------- --------------- --------------- ---------------
      41160.                                                                    
 -------------------------------------------------------------------------------
 
 SOLVING FOR HEAD 
 INITIAL HNEW IS AN EXACT SOLUTION.

 NO OUTPUT CONTROL FOR STRESS PERIOD   12   TIME STEP   14

 -------------------------------------------------------------------------------
                             SWR1 OUTPUT PRINT TIMES
                        STRESS PERIOD   12   TIME STEP    14
 --------------- --------------- --------------- --------------- ---------------
      41280.                                                                    
 -------------------------------------------------------------------------------
 
 SOLVING FOR HEAD 
 INITIAL HNEW IS AN EXACT SOLUTION.

 NO OUTPUT CONTROL FOR STRESS PERIOD   12   TIME STEP   15

 -------------------------------------------------------------------------------
                             SWR1 OUTPUT PRINT TIMES
                        STRESS PERIOD   12   TIME STEP    15
 --------------- --------------- --------------- --------------- ---------------
      41400.                                                                    
 -------------------------------------------------------------------------------
 
 SOLVING FOR HEAD 
 INITIAL HNEW IS AN EXACT SOLUTION.

 NO OUTPUT CONTROL FOR STRESS PERIOD   12   TIME STEP   16

 -------------------------------------------------------------------------------
                             SWR1 OUTPUT PRINT TIMES
                        STRESS PERIOD   12   TIME STEP    16
 --------------- --------------- --------------- --------------- ---------------
      41520.                                                                    
 -------------------------------------------------------------------------------
 
 SOLVING FOR HEAD 
 INITIAL HNEW IS AN EXACT SOLUTION.

 NO OUTPUT CONTROL FOR STRESS PERIOD   12   TIME STEP   17

 -------------------------------------------------------------------------------
                             SWR1 OUTPUT PRINT TIMES
                        STRESS PERIOD   12   TIME STEP    17
 --------------- --------------- --------------- --------------- ---------------
      41640.                                                                    
 -------------------------------------------------------------------------------
 
 SOLVING FOR HEAD 
 INITIAL HNEW IS AN EXACT SOLUTION.

 NO OUTPUT CONTROL FOR STRESS PERIOD   12   TIME STEP   18

 -------------------------------------------------------------------------------
                             SWR1 OUTPUT PRINT TIMES
                        STRESS PERIOD   12   TIME STEP    18
 --------------- --------------- --------------- --------------- ---------------
      41760.                                                                    
 -------------------------------------------------------------------------------
 
 SOLVING FOR HEAD 
 INITIAL HNEW IS AN EXACT SOLUTION.

 NO OUTPUT CONTROL FOR STRESS PERIOD   12   TIME STEP   19

 -------------------------------------------------------------------------------
                             SWR1 OUTPUT PRINT TIMES
                        STRESS PERIOD   12   TIME STEP    19
 --------------- --------------- --------------- --------------- ---------------
      41880.                                                                    
 -------------------------------------------------------------------------------
 
 SOLVING FOR HEAD 
 INITIAL HNEW IS AN EXACT SOLUTION.

 NO OUTPUT CONTROL FOR STRESS PERIOD   12   TIME STEP   20

 -------------------------------------------------------------------------------
                             SWR1 OUTPUT PRINT TIMES
                        STRESS PERIOD   12   TIME STEP    20
 --------------- --------------- --------------- --------------- ---------------
      42000.                                                                    
 -------------------------------------------------------------------------------
 
 SOLVING FOR HEAD 
 INITIAL HNEW IS AN EXACT SOLUTION.

 NO OUTPUT CONTROL FOR STRESS PERIOD   12   TIME STEP   21

 -------------------------------------------------------------------------------
                             SWR1 OUTPUT PRINT TIMES
                        STRESS PERIOD   12   TIME STEP    21
 --------------- --------------- --------------- --------------- ---------------
      42120.                                                                    
 -------------------------------------------------------------------------------
 
 SOLVING FOR HEAD 
 INITIAL HNEW IS AN EXACT SOLUTION.

 NO OUTPUT CONTROL FOR STRESS PERIOD   12   TIME STEP   22

 -------------------------------------------------------------------------------
                             SWR1 OUTPUT PRINT TIMES
                        STRESS PERIOD   12   TIME STEP    22
 --------------- --------------- --------------- --------------- ---------------
      42240.                                                                    
 -------------------------------------------------------------------------------
 
 SOLVING FOR HEAD 
 INITIAL HNEW IS AN EXACT SOLUTION.

 NO OUTPUT CONTROL FOR STRESS PERIOD   12   TIME STEP   23

 -------------------------------------------------------------------------------
                             SWR1 OUTPUT PRINT TIMES
                        STRESS PERIOD   12   TIME STEP    23
 --------------- --------------- --------------- --------------- ---------------
      42360.                                                                    
 -------------------------------------------------------------------------------
 
 SOLVING FOR HEAD 
 INITIAL HNEW IS AN EXACT SOLUTION.

 NO OUTPUT CONTROL FOR STRESS PERIOD   12   TIME STEP   24

 -------------------------------------------------------------------------------
                             SWR1 OUTPUT PRINT TIMES
                        STRESS PERIOD   12   TIME STEP    24
 --------------- --------------- --------------- --------------- ---------------
      42480.                                                                    
 -------------------------------------------------------------------------------
 
 SOLVING FOR HEAD 
 INITIAL HNEW IS AN EXACT SOLUTION.

 NO OUTPUT CONTROL FOR STRESS PERIOD   12   TIME STEP   25

 -------------------------------------------------------------------------------
                             SWR1 OUTPUT PRINT TIMES
                        STRESS PERIOD   12   TIME STEP    25
 --------------- --------------- --------------- --------------- ---------------
      42600.                                                                    
 -------------------------------------------------------------------------------
 
 SOLVING FOR HEAD 
 INITIAL HNEW IS AN EXACT SOLUTION.

 NO OUTPUT CONTROL FOR STRESS PERIOD   12   TIME STEP   26

 -------------------------------------------------------------------------------
                             SWR1 OUTPUT PRINT TIMES
                        STRESS PERIOD   12   TIME STEP    26
 --------------- --------------- --------------- --------------- ---------------
      42720.                                                                    
 -------------------------------------------------------------------------------
 
 SOLVING FOR HEAD 
 INITIAL HNEW IS AN EXACT SOLUTION.

 NO OUTPUT CONTROL FOR STRESS PERIOD   12   TIME STEP   27

 -------------------------------------------------------------------------------
                             SWR1 OUTPUT PRINT TIMES
                        STRESS PERIOD   12   TIME STEP    27
 --------------- --------------- --------------- --------------- ---------------
      42840.                                                                    
 -------------------------------------------------------------------------------
 
 SOLVING FOR HEAD 
 INITIAL HNEW IS AN EXACT SOLUTION.

 NO OUTPUT CONTROL FOR STRESS PERIOD   12   TIME STEP   28

 -------------------------------------------------------------------------------
                             SWR1 OUTPUT PRINT TIMES
                        STRESS PERIOD   12   TIME STEP    28
 --------------- --------------- --------------- --------------- ---------------
      42960.                                                                    
 -------------------------------------------------------------------------------
 
 SOLVING FOR HEAD 
 INITIAL HNEW IS AN EXACT SOLUTION.

 NO OUTPUT CONTROL FOR STRESS PERIOD   12   TIME STEP   29

 -------------------------------------------------------------------------------
                             SWR1 OUTPUT PRINT TIMES
                        STRESS PERIOD   12   TIME STEP    29
 --------------- --------------- --------------- --------------- ---------------
      43080.                                                                    
 -------------------------------------------------------------------------------
 
 SOLVING FOR HEAD 
 INITIAL HNEW IS AN EXACT SOLUTION.

 NO OUTPUT CONTROL FOR STRESS PERIOD   12   TIME STEP   30

 -------------------------------------------------------------------------------
                             SWR1 OUTPUT PRINT TIMES
                        STRESS PERIOD   12   TIME STEP    30
 --------------- --------------- --------------- --------------- ---------------
      43200.                                                                    
 -------------------------------------------------------------------------------


                    VOLUMETRIC SURFACE WATER BUDGET FOR ENTIRE MODEL
                    AT END OF TIME STEP    30 IN STRESS PERIOD   12
  -----------------------------------------------------------------------------------

        CUMULATIVE VOLUMES      L**3       RATES FOR THIS TIME STEP      L**3/T
        ------------------                 ------------------------

              IN:                                      IN:
              ---                                      ---
          LATERAL FLOW  =      284588.0000         LATERAL FLOW  =          29.9453
         UNSAT. RUNOFF  =           0.0000        UNSAT. RUNOFF  =           0.0000
              RAINFALL  =      413947.4062             RAINFALL  =          43.5560
           EVAPORATION  =           0.0000          EVAPORATION  =           0.0000
         REACH-AQ FLOW  =           0.0000        REACH-AQ FLOW  =           0.0000
         EXTERNAL FLOW  =           0.0000        EXTERNAL FLOW  =           0.0000
         BOUNDARY FLOW  =           0.0000        BOUNDARY FLOW  =           0.0000
         CONSTANT FLOW  =           0.0000        CONSTANT FLOW  =           0.0000
               STORAGE  =       12748.7070              STORAGE  =       3.6334E-03

               TOTAL IN =      711284.0625              TOTAL IN =          73.5049

             OUT:                                     OUT:
             ----                                     ----
          LATERAL FLOW  =           0.0000         LATERAL FLOW  =           0.0000
         UNSAT. RUNOFF  =           0.0000        UNSAT. RUNOFF  =           0.0000
              RAINFALL  =           0.0000             RAINFALL  =           0.0000
           EVAPORATION  =           0.0000          EVAPORATION  =           0.0000
         REACH-AQ FLOW  =           0.0000        REACH-AQ FLOW  =           0.0000
         EXTERNAL FLOW  =           0.0000        EXTERNAL FLOW  =           0.0000
         BOUNDARY FLOW  =           0.0000        BOUNDARY FLOW  =           0.0000
         CONSTANT FLOW  =       25789.0059        CONSTANT FLOW  =           0.5981
               STORAGE  =      685495.6875              STORAGE  =          72.9067

              TOTAL OUT =      711284.6875             TOTAL OUT =          73.5048

               IN - OUT =          -0.6250              IN - OUT =       1.5259E-04

    PERCENT DISCREPANCY =           0.00     PERCENT DISCREPANCY =           0.00

1
  VOLUMETRIC BUDGET FOR ENTIRE MODEL AT END OF TIME STEP   30, STRESS PERIOD  12
  ------------------------------------------------------------------------------

     CUMULATIVE VOLUMES      L**3       RATES FOR THIS TIME STEP      L**3/T
     ------------------                 ------------------------

           IN:                                      IN:
           ---                                      ---
             STORAGE =           0.0000               STORAGE =           0.0000
       CONSTANT HEAD =           0.0000         CONSTANT HEAD =           0.0000
         SWR LEAKAGE =           0.0000           SWR LEAKAGE =           0.0000
            SWR GWET =           0.0000              SWR GWET =           0.0000

            TOTAL IN =           0.0000              TOTAL IN =           0.0000

          OUT:                                     OUT:
          ----                                     ----
             STORAGE =           0.0000               STORAGE =           0.0000
       CONSTANT HEAD =           0.0000         CONSTANT HEAD =           0.0000
         SWR LEAKAGE =           0.0000           SWR LEAKAGE =           0.0000
            SWR GWET =           0.0000              SWR GWET =           0.0000

           TOTAL OUT =           0.0000             TOTAL OUT =           0.0000

            IN - OUT =           0.0000              IN - OUT =           0.0000

 PERCENT DISCREPANCY =           0.00     PERCENT DISCREPANCY =           0.00






         TIME SUMMARY AT END OF TIME STEP   30 IN STRESS PERIOD   12
                    SECONDS     MINUTES      HOURS       DAYS        YEARS
                    -----------------------------------------------------------
   TIME STEP LENGTH  120.00      2.0000     3.33333E-02 1.38889E-03 3.80257E-06
 STRESS PERIOD TIME  3600.0      60.000      1.0000     4.16667E-02 1.14077E-04
         TOTAL TIME  43200.      720.00      12.000     0.50000     1.36893E-03
1
1
                            STRESS PERIOD NO.   13, LENGTH =   3600.000    
                            -----------------------------------------------

                              NUMBER OF TIME STEPS =    30

                               MULTIPLIER FOR DELT =     1.000

                            INITIAL TIME STEP SIZE =   120.0000    

 ...READING SWR1 PROCESS DATASET 5

 ...READING SWR1 PROCESS DATASET 7B



                   2D RAINFALL DATA
 READING ON UNIT   61 WITH FORMAT: (11E12.4)           

           1          2          3          4          5          6          7          8          9         10         11
 .........................................................................................................................
   1    0.00       0.00       0.00       0.00       0.00       0.00       0.00       0.00       0.00       0.00       0.00    
   2    0.00       0.00       0.00       0.00       0.00       0.00       0.00       0.00       0.00       0.00       0.00    
   3    0.00       0.00       0.00       0.00       0.00       0.00       0.00       0.00       0.00       0.00       0.00    
   4    0.00       0.00       0.00       0.00      1.195E-05  1.195E-05  1.195E-05   0.00       0.00       0.00       0.00    
   5    0.00       0.00       0.00       0.00      1.195E-05  1.195E-05  1.195E-05   0.00       0.00       0.00       0.00    
   6    0.00       0.00       0.00      1.195E-05  1.195E-05  1.195E-05  1.195E-05   0.00       0.00       0.00       0.00    
   7    0.00       0.00       0.00       0.00      1.195E-05  1.195E-05  1.195E-05   0.00       0.00       0.00       0.00    
   8    0.00       0.00       0.00       0.00      1.195E-05  1.195E-05  1.195E-05   0.00       0.00       0.00       0.00    
   9    0.00       0.00       0.00       0.00       0.00       0.00       0.00       0.00       0.00       0.00       0.00    
  10    0.00       0.00       0.00       0.00       0.00       0.00       0.00       0.00       0.00       0.00       0.00    
  11    0.00       0.00       0.00       0.00       0.00       0.00       0.00       0.00       0.00       0.00       0.00    

 ...READING SWR1 PROCESS DATASET 9B



             2D LATERAL INFLOW DATA
 READING ON UNIT   61 WITH FORMAT: (11E12.4)           

           1          2          3          4          5          6          7          8          9         10         11
 .........................................................................................................................
   1    2.99       0.00       0.00       0.00       0.00       0.00       0.00       0.00       0.00       0.00       0.00    
   2    2.99       0.00       0.00       0.00       0.00       0.00       0.00       0.00       0.00       0.00       0.00    
   3    2.99       0.00       0.00       0.00       0.00       0.00       0.00       0.00       0.00       0.00       0.00    
   4    2.99       0.00       0.00       0.00       0.00       0.00       0.00       0.00       0.00       0.00       0.00    
   5    2.99       0.00       0.00       0.00       0.00       0.00       0.00       0.00       0.00       0.00       0.00    
   6    2.99       0.00       0.00       0.00       0.00       0.00       0.00       0.00       0.00       0.00       0.00    
   7    2.99       0.00       0.00       0.00       0.00       0.00       0.00       0.00       0.00       0.00       0.00    
   8    2.99       0.00       0.00       0.00       0.00       0.00       0.00       0.00       0.00       0.00       0.00    
   9    2.99       0.00       0.00       0.00       0.00       0.00       0.00       0.00       0.00       0.00       0.00    
  10    2.99       0.00       0.00       0.00       0.00       0.00       0.00       0.00       0.00       0.00       0.00    
  11    2.99       0.00       0.00       0.00       0.00       0.00       0.00       0.00       0.00       0.00       0.00    
 
 SOLVING FOR HEAD 
 INITIAL HNEW IS AN EXACT SOLUTION.

 OUTPUT CONTROL FOR STRESS PERIOD   13   TIME STEP    1
    SAVE BUDGET

 -------------------------------------------------------------------------------
                             SWR1 OUTPUT PRINT TIMES
                        STRESS PERIOD   13   TIME STEP     1
 --------------- --------------- --------------- --------------- ---------------
      43320.                                                                    
 -------------------------------------------------------------------------------
 
 SOLVING FOR HEAD 
 INITIAL HNEW IS AN EXACT SOLUTION.

 NO OUTPUT CONTROL FOR STRESS PERIOD   13   TIME STEP    2

 -------------------------------------------------------------------------------
                             SWR1 OUTPUT PRINT TIMES
                        STRESS PERIOD   13   TIME STEP     2
 --------------- --------------- --------------- --------------- ---------------
      43440.                                                                    
 -------------------------------------------------------------------------------
 
 SOLVING FOR HEAD 
 INITIAL HNEW IS AN EXACT SOLUTION.

 NO OUTPUT CONTROL FOR STRESS PERIOD   13   TIME STEP    3

 -------------------------------------------------------------------------------
                             SWR1 OUTPUT PRINT TIMES
                        STRESS PERIOD   13   TIME STEP     3
 --------------- --------------- --------------- --------------- ---------------
      43560.                                                                    
 -------------------------------------------------------------------------------
 
 SOLVING FOR HEAD 
 INITIAL HNEW IS AN EXACT SOLUTION.

 NO OUTPUT CONTROL FOR STRESS PERIOD   13   TIME STEP    4

 -------------------------------------------------------------------------------
                             SWR1 OUTPUT PRINT TIMES
                        STRESS PERIOD   13   TIME STEP     4
 --------------- --------------- --------------- --------------- ---------------
      43680.                                                                    
 -------------------------------------------------------------------------------
 
 SOLVING FOR HEAD 
 INITIAL HNEW IS AN EXACT SOLUTION.

 NO OUTPUT CONTROL FOR STRESS PERIOD   13   TIME STEP    5

 -------------------------------------------------------------------------------
                             SWR1 OUTPUT PRINT TIMES
                        STRESS PERIOD   13   TIME STEP     5
 --------------- --------------- --------------- --------------- ---------------
      43800.                                                                    
 -------------------------------------------------------------------------------
 
 SOLVING FOR HEAD 
 INITIAL HNEW IS AN EXACT SOLUTION.

 NO OUTPUT CONTROL FOR STRESS PERIOD   13   TIME STEP    6

 -------------------------------------------------------------------------------
                             SWR1 OUTPUT PRINT TIMES
                        STRESS PERIOD   13   TIME STEP     6
 --------------- --------------- --------------- --------------- ---------------
      43920.                                                                    
 -------------------------------------------------------------------------------
 
 SOLVING FOR HEAD 
 INITIAL HNEW IS AN EXACT SOLUTION.

 NO OUTPUT CONTROL FOR STRESS PERIOD   13   TIME STEP    7

 -------------------------------------------------------------------------------
                             SWR1 OUTPUT PRINT TIMES
                        STRESS PERIOD   13   TIME STEP     7
 --------------- --------------- --------------- --------------- ---------------
      44040.                                                                    
 -------------------------------------------------------------------------------
 
 SOLVING FOR HEAD 
 INITIAL HNEW IS AN EXACT SOLUTION.

 NO OUTPUT CONTROL FOR STRESS PERIOD   13   TIME STEP    8

 -------------------------------------------------------------------------------
                             SWR1 OUTPUT PRINT TIMES
                        STRESS PERIOD   13   TIME STEP     8
 --------------- --------------- --------------- --------------- ---------------
      44160.                                                                    
 -------------------------------------------------------------------------------
 
 SOLVING FOR HEAD 
 INITIAL HNEW IS AN EXACT SOLUTION.

 NO OUTPUT CONTROL FOR STRESS PERIOD   13   TIME STEP    9

 -------------------------------------------------------------------------------
                             SWR1 OUTPUT PRINT TIMES
                        STRESS PERIOD   13   TIME STEP     9
 --------------- --------------- --------------- --------------- ---------------
      44280.                                                                    
 -------------------------------------------------------------------------------
 
 SOLVING FOR HEAD 
 INITIAL HNEW IS AN EXACT SOLUTION.

 NO OUTPUT CONTROL FOR STRESS PERIOD   13   TIME STEP   10

 -------------------------------------------------------------------------------
                             SWR1 OUTPUT PRINT TIMES
                        STRESS PERIOD   13   TIME STEP    10
 --------------- --------------- --------------- --------------- ---------------
      44400.                                                                    
 -------------------------------------------------------------------------------
 
 SOLVING FOR HEAD 
 INITIAL HNEW IS AN EXACT SOLUTION.

 NO OUTPUT CONTROL FOR STRESS PERIOD   13   TIME STEP   11

 -------------------------------------------------------------------------------
                             SWR1 OUTPUT PRINT TIMES
                        STRESS PERIOD   13   TIME STEP    11
 --------------- --------------- --------------- --------------- ---------------
      44520.                                                                    
 -------------------------------------------------------------------------------
 
 SOLVING FOR HEAD 
 INITIAL HNEW IS AN EXACT SOLUTION.

 NO OUTPUT CONTROL FOR STRESS PERIOD   13   TIME STEP   12

 -------------------------------------------------------------------------------
                             SWR1 OUTPUT PRINT TIMES
                        STRESS PERIOD   13   TIME STEP    12
 --------------- --------------- --------------- --------------- ---------------
      44640.                                                                    
 -------------------------------------------------------------------------------
 
 SOLVING FOR HEAD 
 INITIAL HNEW IS AN EXACT SOLUTION.

 NO OUTPUT CONTROL FOR STRESS PERIOD   13   TIME STEP   13

 -------------------------------------------------------------------------------
                             SWR1 OUTPUT PRINT TIMES
                        STRESS PERIOD   13   TIME STEP    13
 --------------- --------------- --------------- --------------- ---------------
      44760.                                                                    
 -------------------------------------------------------------------------------
 
 SOLVING FOR HEAD 
 INITIAL HNEW IS AN EXACT SOLUTION.

 NO OUTPUT CONTROL FOR STRESS PERIOD   13   TIME STEP   14

 -------------------------------------------------------------------------------
                             SWR1 OUTPUT PRINT TIMES
                        STRESS PERIOD   13   TIME STEP    14
 --------------- --------------- --------------- --------------- ---------------
      44880.                                                                    
 -------------------------------------------------------------------------------
 
 SOLVING FOR HEAD 
 INITIAL HNEW IS AN EXACT SOLUTION.

 NO OUTPUT CONTROL FOR STRESS PERIOD   13   TIME STEP   15

 -------------------------------------------------------------------------------
                             SWR1 OUTPUT PRINT TIMES
                        STRESS PERIOD   13   TIME STEP    15
 --------------- --------------- --------------- --------------- ---------------
      45000.                                                                    
 -------------------------------------------------------------------------------
 
 SOLVING FOR HEAD 
 INITIAL HNEW IS AN EXACT SOLUTION.

 NO OUTPUT CONTROL FOR STRESS PERIOD   13   TIME STEP   16

 -------------------------------------------------------------------------------
                             SWR1 OUTPUT PRINT TIMES
                        STRESS PERIOD   13   TIME STEP    16
 --------------- --------------- --------------- --------------- ---------------
      45120.                                                                    
 -------------------------------------------------------------------------------
 
 SOLVING FOR HEAD 
 INITIAL HNEW IS AN EXACT SOLUTION.

 NO OUTPUT CONTROL FOR STRESS PERIOD   13   TIME STEP   17

 -------------------------------------------------------------------------------
                             SWR1 OUTPUT PRINT TIMES
                        STRESS PERIOD   13   TIME STEP    17
 --------------- --------------- --------------- --------------- ---------------
      45240.                                                                    
 -------------------------------------------------------------------------------
 
 SOLVING FOR HEAD 
 INITIAL HNEW IS AN EXACT SOLUTION.

 NO OUTPUT CONTROL FOR STRESS PERIOD   13   TIME STEP   18

 -------------------------------------------------------------------------------
                             SWR1 OUTPUT PRINT TIMES
                        STRESS PERIOD   13   TIME STEP    18
 --------------- --------------- --------------- --------------- ---------------
      45360.                                                                    
 -------------------------------------------------------------------------------
 
 SOLVING FOR HEAD 
 INITIAL HNEW IS AN EXACT SOLUTION.

 NO OUTPUT CONTROL FOR STRESS PERIOD   13   TIME STEP   19

 -------------------------------------------------------------------------------
                             SWR1 OUTPUT PRINT TIMES
                        STRESS PERIOD   13   TIME STEP    19
 --------------- --------------- --------------- --------------- ---------------
      45480.                                                                    
 -------------------------------------------------------------------------------
 
 SOLVING FOR HEAD 
 INITIAL HNEW IS AN EXACT SOLUTION.

 NO OUTPUT CONTROL FOR STRESS PERIOD   13   TIME STEP   20

 -------------------------------------------------------------------------------
                             SWR1 OUTPUT PRINT TIMES
                        STRESS PERIOD   13   TIME STEP    20
 --------------- --------------- --------------- --------------- ---------------
      45600.                                                                    
 -------------------------------------------------------------------------------
 
 SOLVING FOR HEAD 
 INITIAL HNEW IS AN EXACT SOLUTION.

 NO OUTPUT CONTROL FOR STRESS PERIOD   13   TIME STEP   21

 -------------------------------------------------------------------------------
                             SWR1 OUTPUT PRINT TIMES
                        STRESS PERIOD   13   TIME STEP    21
 --------------- --------------- --------------- --------------- ---------------
      45720.                                                                    
 -------------------------------------------------------------------------------
 
 SOLVING FOR HEAD 
 INITIAL HNEW IS AN EXACT SOLUTION.

 NO OUTPUT CONTROL FOR STRESS PERIOD   13   TIME STEP   22

 -------------------------------------------------------------------------------
                             SWR1 OUTPUT PRINT TIMES
                        STRESS PERIOD   13   TIME STEP    22
 --------------- --------------- --------------- --------------- ---------------
      45840.                                                                    
 -------------------------------------------------------------------------------
 
 SOLVING FOR HEAD 
 INITIAL HNEW IS AN EXACT SOLUTION.

 NO OUTPUT CONTROL FOR STRESS PERIOD   13   TIME STEP   23

 -------------------------------------------------------------------------------
                             SWR1 OUTPUT PRINT TIMES
                        STRESS PERIOD   13   TIME STEP    23
 --------------- --------------- --------------- --------------- ---------------
      45960.                                                                    
 -------------------------------------------------------------------------------
 
 SOLVING FOR HEAD 
 INITIAL HNEW IS AN EXACT SOLUTION.

 NO OUTPUT CONTROL FOR STRESS PERIOD   13   TIME STEP   24

 -------------------------------------------------------------------------------
                             SWR1 OUTPUT PRINT TIMES
                        STRESS PERIOD   13   TIME STEP    24
 --------------- --------------- --------------- --------------- ---------------
      46080.                                                                    
 -------------------------------------------------------------------------------
 
 SOLVING FOR HEAD 
 INITIAL HNEW IS AN EXACT SOLUTION.

 NO OUTPUT CONTROL FOR STRESS PERIOD   13   TIME STEP   25

 -------------------------------------------------------------------------------
                             SWR1 OUTPUT PRINT TIMES
                        STRESS PERIOD   13   TIME STEP    25
 --------------- --------------- --------------- --------------- ---------------
      46200.                                                                    
 -------------------------------------------------------------------------------
 
 SOLVING FOR HEAD 
 INITIAL HNEW IS AN EXACT SOLUTION.

 NO OUTPUT CONTROL FOR STRESS PERIOD   13   TIME STEP   26

 -------------------------------------------------------------------------------
                             SWR1 OUTPUT PRINT TIMES
                        STRESS PERIOD   13   TIME STEP    26
 --------------- --------------- --------------- --------------- ---------------
      46320.                                                                    
 -------------------------------------------------------------------------------
 
 SOLVING FOR HEAD 
 INITIAL HNEW IS AN EXACT SOLUTION.

 NO OUTPUT CONTROL FOR STRESS PERIOD   13   TIME STEP   27

 -------------------------------------------------------------------------------
                             SWR1 OUTPUT PRINT TIMES
                        STRESS PERIOD   13   TIME STEP    27
 --------------- --------------- --------------- --------------- ---------------
      46440.                                                                    
 -------------------------------------------------------------------------------
 
 SOLVING FOR HEAD 
 INITIAL HNEW IS AN EXACT SOLUTION.

 NO OUTPUT CONTROL FOR STRESS PERIOD   13   TIME STEP   28

 -------------------------------------------------------------------------------
                             SWR1 OUTPUT PRINT TIMES
                        STRESS PERIOD   13   TIME STEP    28
 --------------- --------------- --------------- --------------- ---------------
      46560.                                                                    
 -------------------------------------------------------------------------------
 
 SOLVING FOR HEAD 
 INITIAL HNEW IS AN EXACT SOLUTION.

 NO OUTPUT CONTROL FOR STRESS PERIOD   13   TIME STEP   29

 -------------------------------------------------------------------------------
                             SWR1 OUTPUT PRINT TIMES
                        STRESS PERIOD   13   TIME STEP    29
 --------------- --------------- --------------- --------------- ---------------
      46680.                                                                    
 -------------------------------------------------------------------------------
 
 SOLVING FOR HEAD 
 INITIAL HNEW IS AN EXACT SOLUTION.

 NO OUTPUT CONTROL FOR STRESS PERIOD   13   TIME STEP   30

 -------------------------------------------------------------------------------
                             SWR1 OUTPUT PRINT TIMES
                        STRESS PERIOD   13   TIME STEP    30
 --------------- --------------- --------------- --------------- ---------------
      46800.                                                                    
 -------------------------------------------------------------------------------


                    VOLUMETRIC SURFACE WATER BUDGET FOR ENTIRE MODEL
                    AT END OF TIME STEP    30 IN STRESS PERIOD   13
  -----------------------------------------------------------------------------------

        CUMULATIVE VOLUMES      L**3       RATES FOR THIS TIME STEP      L**3/T
        ------------------                 ------------------------

              IN:                                      IN:
              ---                                      ---
          LATERAL FLOW  =      402905.1875         LATERAL FLOW  =          32.8658
         UNSAT. RUNOFF  =           0.0000        UNSAT. RUNOFF  =           0.0000
              RAINFALL  =      586041.8125             RAINFALL  =          47.8040
           EVAPORATION  =           0.0000          EVAPORATION  =           0.0000
         REACH-AQ FLOW  =           0.0000        REACH-AQ FLOW  =           0.0000
         EXTERNAL FLOW  =           0.0000        EXTERNAL FLOW  =           0.0000
         BOUNDARY FLOW  =           0.0000        BOUNDARY FLOW  =           0.0000
         CONSTANT FLOW  =           0.0000        CONSTANT FLOW  =           0.0000
               STORAGE  =       12755.5049              STORAGE  =       1.1611E-04

               TOTAL IN =     1001702.5000              TOTAL IN =          80.6699

             OUT:                                     OUT:
             ----                                     ----
          LATERAL FLOW  =           0.0000         LATERAL FLOW  =           0.0000
         UNSAT. RUNOFF  =           0.0000        UNSAT. RUNOFF  =           0.0000
              RAINFALL  =           0.0000             RAINFALL  =           0.0000
           EVAPORATION  =           0.0000          EVAPORATION  =           0.0000
         REACH-AQ FLOW  =           0.0000        REACH-AQ FLOW  =           0.0000
         EXTERNAL FLOW  =           0.0000        EXTERNAL FLOW  =           0.0000
         BOUNDARY FLOW  =           0.0000        BOUNDARY FLOW  =           0.0000
         CONSTANT FLOW  =       27945.1855        CONSTANT FLOW  =           0.6000
               STORAGE  =      973756.9375              STORAGE  =          80.0696

              TOTAL OUT =     1001702.1250             TOTAL OUT =          80.6697

               IN - OUT =           0.3750              IN - OUT =       2.3651E-04

    PERCENT DISCREPANCY =           0.00     PERCENT DISCREPANCY =           0.00

1
  VOLUMETRIC BUDGET FOR ENTIRE MODEL AT END OF TIME STEP   30, STRESS PERIOD  13
  ------------------------------------------------------------------------------

     CUMULATIVE VOLUMES      L**3       RATES FOR THIS TIME STEP      L**3/T
     ------------------                 ------------------------

           IN:                                      IN:
           ---                                      ---
             STORAGE =           0.0000               STORAGE =           0.0000
       CONSTANT HEAD =           0.0000         CONSTANT HEAD =           0.0000
         SWR LEAKAGE =           0.0000           SWR LEAKAGE =           0.0000
            SWR GWET =           0.0000              SWR GWET =           0.0000

            TOTAL IN =           0.0000              TOTAL IN =           0.0000

          OUT:                                     OUT:
          ----                                     ----
             STORAGE =           0.0000               STORAGE =           0.0000
       CONSTANT HEAD =           0.0000         CONSTANT HEAD =           0.0000
         SWR LEAKAGE =           0.0000           SWR LEAKAGE =           0.0000
            SWR GWET =           0.0000              SWR GWET =           0.0000

           TOTAL OUT =           0.0000             TOTAL OUT =           0.0000

            IN - OUT =           0.0000              IN - OUT =           0.0000

 PERCENT DISCREPANCY =           0.00     PERCENT DISCREPANCY =           0.00






         TIME SUMMARY AT END OF TIME STEP   30 IN STRESS PERIOD   13
                    SECONDS     MINUTES      HOURS       DAYS        YEARS
                    -----------------------------------------------------------
   TIME STEP LENGTH  120.00      2.0000     3.33333E-02 1.38889E-03 3.80257E-06
 STRESS PERIOD TIME  3600.0      60.000      1.0000     4.16667E-02 1.14077E-04
         TOTAL TIME  46800.      780.00      13.000     0.54167     1.48300E-03
1
1
                            STRESS PERIOD NO.   14, LENGTH =   3600.000    
                            -----------------------------------------------

                              NUMBER OF TIME STEPS =    30

                               MULTIPLIER FOR DELT =     1.000

                            INITIAL TIME STEP SIZE =   120.0000    

 ...READING SWR1 PROCESS DATASET 5

 ...READING SWR1 PROCESS DATASET 7B



                   2D RAINFALL DATA
 READING ON UNIT   61 WITH FORMAT: (11E12.4)           

           1          2          3          4          5          6          7          8          9         10         11
 .........................................................................................................................
   1    0.00       0.00       0.00       0.00       0.00       0.00       0.00       0.00       0.00       0.00       0.00    
   2    0.00       0.00       0.00       0.00       0.00       0.00       0.00       0.00       0.00       0.00       0.00    
   3    0.00       0.00       0.00       0.00       0.00       0.00       0.00       0.00       0.00       0.00       0.00    
   4    0.00       0.00       0.00       0.00      1.089E-05  1.089E-05  1.089E-05   0.00       0.00       0.00       0.00    
   5    0.00       0.00       0.00       0.00      1.089E-05  1.089E-05  1.089E-05   0.00       0.00       0.00       0.00    
   6    0.00       0.00       0.00      1.089E-05  1.089E-05  1.089E-05  1.089E-05   0.00       0.00       0.00       0.00    
   7    0.00       0.00       0.00       0.00      1.089E-05  1.089E-05  1.089E-05   0.00       0.00       0.00       0.00    
   8    0.00       0.00       0.00       0.00      1.089E-05  1.089E-05  1.089E-05   0.00       0.00       0.00       0.00    
   9    0.00       0.00       0.00       0.00       0.00       0.00       0.00       0.00       0.00       0.00       0.00    
  10    0.00       0.00       0.00       0.00       0.00       0.00       0.00       0.00       0.00       0.00       0.00    
  11    0.00       0.00       0.00       0.00       0.00       0.00       0.00       0.00       0.00       0.00       0.00    

 ...READING SWR1 PROCESS DATASET 9B



             2D LATERAL INFLOW DATA
 READING ON UNIT   61 WITH FORMAT: (11E12.4)           

           1          2          3          4          5          6          7          8          9         10         11
 .........................................................................................................................
   1    2.72       0.00       0.00       0.00       0.00       0.00       0.00       0.00       0.00       0.00       0.00    
   2    2.72       0.00       0.00       0.00       0.00       0.00       0.00       0.00       0.00       0.00       0.00    
   3    2.72       0.00       0.00       0.00       0.00       0.00       0.00       0.00       0.00       0.00       0.00    
   4    2.72       0.00       0.00       0.00       0.00       0.00       0.00       0.00       0.00       0.00       0.00    
   5    2.72       0.00       0.00       0.00       0.00       0.00       0.00       0.00       0.00       0.00       0.00    
   6    2.72       0.00       0.00       0.00       0.00       0.00       0.00       0.00       0.00       0.00       0.00    
   7    2.72       0.00       0.00       0.00       0.00       0.00       0.00       0.00       0.00       0.00       0.00    
   8    2.72       0.00       0.00       0.00       0.00       0.00       0.00       0.00       0.00       0.00       0.00    
   9    2.72       0.00       0.00       0.00       0.00       0.00       0.00       0.00       0.00       0.00       0.00    
  10    2.72       0.00       0.00       0.00       0.00       0.00       0.00       0.00       0.00       0.00       0.00    
  11    2.72       0.00       0.00       0.00       0.00       0.00       0.00       0.00       0.00       0.00       0.00    
 
 SOLVING FOR HEAD 
 INITIAL HNEW IS AN EXACT SOLUTION.

 OUTPUT CONTROL FOR STRESS PERIOD   14   TIME STEP    1
    SAVE BUDGET

 -------------------------------------------------------------------------------
                             SWR1 OUTPUT PRINT TIMES
                        STRESS PERIOD   14   TIME STEP     1
 --------------- --------------- --------------- --------------- ---------------
      46920.                                                                    
 -------------------------------------------------------------------------------
 
 SOLVING FOR HEAD 
 INITIAL HNEW IS AN EXACT SOLUTION.

 NO OUTPUT CONTROL FOR STRESS PERIOD   14   TIME STEP    2

 -------------------------------------------------------------------------------
                             SWR1 OUTPUT PRINT TIMES
                        STRESS PERIOD   14   TIME STEP     2
 --------------- --------------- --------------- --------------- ---------------
      47040.                                                                    
 -------------------------------------------------------------------------------
 
 SOLVING FOR HEAD 
 INITIAL HNEW IS AN EXACT SOLUTION.

 NO OUTPUT CONTROL FOR STRESS PERIOD   14   TIME STEP    3

 -------------------------------------------------------------------------------
                             SWR1 OUTPUT PRINT TIMES
                        STRESS PERIOD   14   TIME STEP     3
 --------------- --------------- --------------- --------------- ---------------
      47160.                                                                    
 -------------------------------------------------------------------------------
 
 SOLVING FOR HEAD 
 INITIAL HNEW IS AN EXACT SOLUTION.

 NO OUTPUT CONTROL FOR STRESS PERIOD   14   TIME STEP    4

 -------------------------------------------------------------------------------
                             SWR1 OUTPUT PRINT TIMES
                        STRESS PERIOD   14   TIME STEP     4
 --------------- --------------- --------------- --------------- ---------------
      47280.                                                                    
 -------------------------------------------------------------------------------
 
 SOLVING FOR HEAD 
 INITIAL HNEW IS AN EXACT SOLUTION.

 NO OUTPUT CONTROL FOR STRESS PERIOD   14   TIME STEP    5

 -------------------------------------------------------------------------------
                             SWR1 OUTPUT PRINT TIMES
                        STRESS PERIOD   14   TIME STEP     5
 --------------- --------------- --------------- --------------- ---------------
      47400.                                                                    
 -------------------------------------------------------------------------------
 
 SOLVING FOR HEAD 
 INITIAL HNEW IS AN EXACT SOLUTION.

 NO OUTPUT CONTROL FOR STRESS PERIOD   14   TIME STEP    6

 -------------------------------------------------------------------------------
                             SWR1 OUTPUT PRINT TIMES
                        STRESS PERIOD   14   TIME STEP     6
 --------------- --------------- --------------- --------------- ---------------
      47520.                                                                    
 -------------------------------------------------------------------------------
 
 SOLVING FOR HEAD 
 INITIAL HNEW IS AN EXACT SOLUTION.

 NO OUTPUT CONTROL FOR STRESS PERIOD   14   TIME STEP    7

 -------------------------------------------------------------------------------
                             SWR1 OUTPUT PRINT TIMES
                        STRESS PERIOD   14   TIME STEP     7
 --------------- --------------- --------------- --------------- ---------------
      47640.                                                                    
 -------------------------------------------------------------------------------
 
 SOLVING FOR HEAD 
 INITIAL HNEW IS AN EXACT SOLUTION.

 NO OUTPUT CONTROL FOR STRESS PERIOD   14   TIME STEP    8

 -------------------------------------------------------------------------------
                             SWR1 OUTPUT PRINT TIMES
                        STRESS PERIOD   14   TIME STEP     8
 --------------- --------------- --------------- --------------- ---------------
      47760.                                                                    
 -------------------------------------------------------------------------------
 
 SOLVING FOR HEAD 
 INITIAL HNEW IS AN EXACT SOLUTION.

 NO OUTPUT CONTROL FOR STRESS PERIOD   14   TIME STEP    9

 -------------------------------------------------------------------------------
                             SWR1 OUTPUT PRINT TIMES
                        STRESS PERIOD   14   TIME STEP     9
 --------------- --------------- --------------- --------------- ---------------
      47880.                                                                    
 -------------------------------------------------------------------------------
 
 SOLVING FOR HEAD 
 INITIAL HNEW IS AN EXACT SOLUTION.

 NO OUTPUT CONTROL FOR STRESS PERIOD   14   TIME STEP   10

 -------------------------------------------------------------------------------
                             SWR1 OUTPUT PRINT TIMES
                        STRESS PERIOD   14   TIME STEP    10
 --------------- --------------- --------------- --------------- ---------------
      48000.                                                                    
 -------------------------------------------------------------------------------
 
 SOLVING FOR HEAD 
 INITIAL HNEW IS AN EXACT SOLUTION.

 NO OUTPUT CONTROL FOR STRESS PERIOD   14   TIME STEP   11

 -------------------------------------------------------------------------------
                             SWR1 OUTPUT PRINT TIMES
                        STRESS PERIOD   14   TIME STEP    11
 --------------- --------------- --------------- --------------- ---------------
      48120.                                                                    
 -------------------------------------------------------------------------------
 
 SOLVING FOR HEAD 
 INITIAL HNEW IS AN EXACT SOLUTION.

 NO OUTPUT CONTROL FOR STRESS PERIOD   14   TIME STEP   12

 -------------------------------------------------------------------------------
                             SWR1 OUTPUT PRINT TIMES
                        STRESS PERIOD   14   TIME STEP    12
 --------------- --------------- --------------- --------------- ---------------
      48240.                                                                    
 -------------------------------------------------------------------------------
 
 SOLVING FOR HEAD 
 INITIAL HNEW IS AN EXACT SOLUTION.

 NO OUTPUT CONTROL FOR STRESS PERIOD   14   TIME STEP   13

 -------------------------------------------------------------------------------
                             SWR1 OUTPUT PRINT TIMES
                        STRESS PERIOD   14   TIME STEP    13
 --------------- --------------- --------------- --------------- ---------------
      48360.                                                                    
 -------------------------------------------------------------------------------
 
 SOLVING FOR HEAD 
 INITIAL HNEW IS AN EXACT SOLUTION.

 NO OUTPUT CONTROL FOR STRESS PERIOD   14   TIME STEP   14

 -------------------------------------------------------------------------------
                             SWR1 OUTPUT PRINT TIMES
                        STRESS PERIOD   14   TIME STEP    14
 --------------- --------------- --------------- --------------- ---------------
      48480.                                                                    
 -------------------------------------------------------------------------------
 
 SOLVING FOR HEAD 
 INITIAL HNEW IS AN EXACT SOLUTION.

 NO OUTPUT CONTROL FOR STRESS PERIOD   14   TIME STEP   15

 -------------------------------------------------------------------------------
                             SWR1 OUTPUT PRINT TIMES
                        STRESS PERIOD   14   TIME STEP    15
 --------------- --------------- --------------- --------------- ---------------
      48600.                                                                    
 -------------------------------------------------------------------------------
 
 SOLVING FOR HEAD 
 INITIAL HNEW IS AN EXACT SOLUTION.

 NO OUTPUT CONTROL FOR STRESS PERIOD   14   TIME STEP   16

 -------------------------------------------------------------------------------
                             SWR1 OUTPUT PRINT TIMES
                        STRESS PERIOD   14   TIME STEP    16
 --------------- --------------- --------------- --------------- ---------------
      48720.                                                                    
 -------------------------------------------------------------------------------
 
 SOLVING FOR HEAD 
 INITIAL HNEW IS AN EXACT SOLUTION.

 NO OUTPUT CONTROL FOR STRESS PERIOD   14   TIME STEP   17

 -------------------------------------------------------------------------------
                             SWR1 OUTPUT PRINT TIMES
                        STRESS PERIOD   14   TIME STEP    17
 --------------- --------------- --------------- --------------- ---------------
      48840.                                                                    
 -------------------------------------------------------------------------------
 
 SOLVING FOR HEAD 
 INITIAL HNEW IS AN EXACT SOLUTION.

 NO OUTPUT CONTROL FOR STRESS PERIOD   14   TIME STEP   18

 -------------------------------------------------------------------------------
                             SWR1 OUTPUT PRINT TIMES
                        STRESS PERIOD   14   TIME STEP    18
 --------------- --------------- --------------- --------------- ---------------
      48960.                                                                    
 -------------------------------------------------------------------------------
 
 SOLVING FOR HEAD 
 INITIAL HNEW IS AN EXACT SOLUTION.

 NO OUTPUT CONTROL FOR STRESS PERIOD   14   TIME STEP   19

 -------------------------------------------------------------------------------
                             SWR1 OUTPUT PRINT TIMES
                        STRESS PERIOD   14   TIME STEP    19
 --------------- --------------- --------------- --------------- ---------------
      49080.                                                                    
 -------------------------------------------------------------------------------
 
 SOLVING FOR HEAD 
 INITIAL HNEW IS AN EXACT SOLUTION.

 NO OUTPUT CONTROL FOR STRESS PERIOD   14   TIME STEP   20

 -------------------------------------------------------------------------------
                             SWR1 OUTPUT PRINT TIMES
                        STRESS PERIOD   14   TIME STEP    20
 --------------- --------------- --------------- --------------- ---------------
      49200.                                                                    
 -------------------------------------------------------------------------------
 
 SOLVING FOR HEAD 
 INITIAL HNEW IS AN EXACT SOLUTION.

 NO OUTPUT CONTROL FOR STRESS PERIOD   14   TIME STEP   21

 -------------------------------------------------------------------------------
                             SWR1 OUTPUT PRINT TIMES
                        STRESS PERIOD   14   TIME STEP    21
 --------------- --------------- --------------- --------------- ---------------
      49320.                                                                    
 -------------------------------------------------------------------------------
 
 SOLVING FOR HEAD 
 INITIAL HNEW IS AN EXACT SOLUTION.

 NO OUTPUT CONTROL FOR STRESS PERIOD   14   TIME STEP   22

 -------------------------------------------------------------------------------
                             SWR1 OUTPUT PRINT TIMES
                        STRESS PERIOD   14   TIME STEP    22
 --------------- --------------- --------------- --------------- ---------------
      49440.                                                                    
 -------------------------------------------------------------------------------
 
 SOLVING FOR HEAD 
 INITIAL HNEW IS AN EXACT SOLUTION.

 NO OUTPUT CONTROL FOR STRESS PERIOD   14   TIME STEP   23

 -------------------------------------------------------------------------------
                             SWR1 OUTPUT PRINT TIMES
                        STRESS PERIOD   14   TIME STEP    23
 --------------- --------------- --------------- --------------- ---------------
      49560.                                                                    
 -------------------------------------------------------------------------------
 
 SOLVING FOR HEAD 
 INITIAL HNEW IS AN EXACT SOLUTION.

 NO OUTPUT CONTROL FOR STRESS PERIOD   14   TIME STEP   24

 -------------------------------------------------------------------------------
                             SWR1 OUTPUT PRINT TIMES
                        STRESS PERIOD   14   TIME STEP    24
 --------------- --------------- --------------- --------------- ---------------
      49680.                                                                    
 -------------------------------------------------------------------------------
 
 SOLVING FOR HEAD 
 INITIAL HNEW IS AN EXACT SOLUTION.

 NO OUTPUT CONTROL FOR STRESS PERIOD   14   TIME STEP   25

 -------------------------------------------------------------------------------
                             SWR1 OUTPUT PRINT TIMES
                        STRESS PERIOD   14   TIME STEP    25
 --------------- --------------- --------------- --------------- ---------------
      49800.                                                                    
 -------------------------------------------------------------------------------
 
 SOLVING FOR HEAD 
 INITIAL HNEW IS AN EXACT SOLUTION.

 NO OUTPUT CONTROL FOR STRESS PERIOD   14   TIME STEP   26

 -------------------------------------------------------------------------------
                             SWR1 OUTPUT PRINT TIMES
                        STRESS PERIOD   14   TIME STEP    26
 --------------- --------------- --------------- --------------- ---------------
      49920.                                                                    
 -------------------------------------------------------------------------------
 
 SOLVING FOR HEAD 
 INITIAL HNEW IS AN EXACT SOLUTION.

 NO OUTPUT CONTROL FOR STRESS PERIOD   14   TIME STEP   27

 -------------------------------------------------------------------------------
                             SWR1 OUTPUT PRINT TIMES
                        STRESS PERIOD   14   TIME STEP    27
 --------------- --------------- --------------- --------------- ---------------
      50040.                                                                    
 -------------------------------------------------------------------------------
 
 SOLVING FOR HEAD 
 INITIAL HNEW IS AN EXACT SOLUTION.

 NO OUTPUT CONTROL FOR STRESS PERIOD   14   TIME STEP   28

 -------------------------------------------------------------------------------
                             SWR1 OUTPUT PRINT TIMES
                        STRESS PERIOD   14   TIME STEP    28
 --------------- --------------- --------------- --------------- ---------------
      50160.                                                                    
 -------------------------------------------------------------------------------
 
 SOLVING FOR HEAD 
 INITIAL HNEW IS AN EXACT SOLUTION.

 NO OUTPUT CONTROL FOR STRESS PERIOD   14   TIME STEP   29

 -------------------------------------------------------------------------------
                             SWR1 OUTPUT PRINT TIMES
                        STRESS PERIOD   14   TIME STEP    29
 --------------- --------------- --------------- --------------- ---------------
      50280.                                                                    
 -------------------------------------------------------------------------------
 
 SOLVING FOR HEAD 
 INITIAL HNEW IS AN EXACT SOLUTION.

 NO OUTPUT CONTROL FOR STRESS PERIOD   14   TIME STEP   30

 -------------------------------------------------------------------------------
                             SWR1 OUTPUT PRINT TIMES
                        STRESS PERIOD   14   TIME STEP    30
 --------------- --------------- --------------- --------------- ---------------
      50400.                                                                    
 -------------------------------------------------------------------------------


                    VOLUMETRIC SURFACE WATER BUDGET FOR ENTIRE MODEL
                    AT END OF TIME STEP    30 IN STRESS PERIOD   14
  -----------------------------------------------------------------------------------

        CUMULATIVE VOLUMES      L**3       RATES FOR THIS TIME STEP      L**3/T
        ------------------                 ------------------------

              IN:                                      IN:
              ---                                      ---
          LATERAL FLOW  =      510708.3125         LATERAL FLOW  =          29.9453
         UNSAT. RUNOFF  =           0.0000        UNSAT. RUNOFF  =           0.0000
              RAINFALL  =      742844.3125             RAINFALL  =          43.5560
           EVAPORATION  =           0.0000          EVAPORATION  =           0.0000
         REACH-AQ FLOW  =           0.0000        REACH-AQ FLOW  =           0.0000
         EXTERNAL FLOW  =           0.0000        EXTERNAL FLOW  =           0.0000
         BOUNDARY FLOW  =           0.0000        BOUNDARY FLOW  =           0.0000
         CONSTANT FLOW  =           0.0000        CONSTANT FLOW  =           0.0000
               STORAGE  =       12755.5400              STORAGE  =           0.0000

               TOTAL IN =     1266308.1250              TOTAL IN =          73.5013

             OUT:                                     OUT:
             ----                                     ----
          LATERAL FLOW  =           0.0000         LATERAL FLOW  =           0.0000
         UNSAT. RUNOFF  =           0.0000        UNSAT. RUNOFF  =           0.0000
              RAINFALL  =           0.0000             RAINFALL  =           0.0000
           EVAPORATION  =           0.0000          EVAPORATION  =           0.0000
         REACH-AQ FLOW  =           0.0000        REACH-AQ FLOW  =           0.0000
         EXTERNAL FLOW  =           0.0000        EXTERNAL FLOW  =           0.0000
         BOUNDARY FLOW  =           0.0000        BOUNDARY FLOW  =           0.0000
         CONSTANT FLOW  =       30112.8105        CONSTANT FLOW  =           0.6047
               STORAGE  =     1236193.6250              STORAGE  =          72.8965

              TOTAL OUT =     1266306.3750             TOTAL OUT =          73.5011

               IN - OUT =           1.7500              IN - OUT =       1.7548E-04

    PERCENT DISCREPANCY =           0.00     PERCENT DISCREPANCY =           0.00

1
  VOLUMETRIC BUDGET FOR ENTIRE MODEL AT END OF TIME STEP   30, STRESS PERIOD  14
  ------------------------------------------------------------------------------

     CUMULATIVE VOLUMES      L**3       RATES FOR THIS TIME STEP      L**3/T
     ------------------                 ------------------------

           IN:                                      IN:
           ---                                      ---
             STORAGE =           0.0000               STORAGE =           0.0000
       CONSTANT HEAD =           0.0000         CONSTANT HEAD =           0.0000
         SWR LEAKAGE =           0.0000           SWR LEAKAGE =           0.0000
            SWR GWET =           0.0000              SWR GWET =           0.0000

            TOTAL IN =           0.0000              TOTAL IN =           0.0000

          OUT:                                     OUT:
          ----                                     ----
             STORAGE =           0.0000               STORAGE =           0.0000
       CONSTANT HEAD =           0.0000         CONSTANT HEAD =           0.0000
         SWR LEAKAGE =           0.0000           SWR LEAKAGE =           0.0000
            SWR GWET =           0.0000              SWR GWET =           0.0000

           TOTAL OUT =           0.0000             TOTAL OUT =           0.0000

            IN - OUT =           0.0000              IN - OUT =           0.0000

 PERCENT DISCREPANCY =           0.00     PERCENT DISCREPANCY =           0.00






         TIME SUMMARY AT END OF TIME STEP   30 IN STRESS PERIOD   14
                    SECONDS     MINUTES      HOURS       DAYS        YEARS
                    -----------------------------------------------------------
   TIME STEP LENGTH  120.00      2.0000     3.33333E-02 1.38889E-03 3.80257E-06
 STRESS PERIOD TIME  3600.0      60.000      1.0000     4.16667E-02 1.14077E-04
         TOTAL TIME  50400.      840.00      14.000     0.58333     1.59708E-03
1
1
                            STRESS PERIOD NO.   15, LENGTH =   3600.000    
                            -----------------------------------------------

                              NUMBER OF TIME STEPS =    30

                               MULTIPLIER FOR DELT =     1.000

                            INITIAL TIME STEP SIZE =   120.0000    

 ...READING SWR1 PROCESS DATASET 5

 ...READING SWR1 PROCESS DATASET 7B



                   2D RAINFALL DATA
 READING ON UNIT   61 WITH FORMAT: (11E12.4)           

           1          2          3          4          5          6          7          8          9         10         11
 .........................................................................................................................
   1    0.00       0.00       0.00       0.00       0.00       0.00       0.00       0.00       0.00       0.00       0.00    
   2    0.00       0.00       0.00       0.00       0.00       0.00       0.00       0.00       0.00       0.00       0.00    
   3    0.00       0.00       0.00       0.00       0.00       0.00       0.00       0.00       0.00       0.00       0.00    
   4    0.00       0.00       0.00       0.00      8.237E-06  8.237E-06  8.237E-06   0.00       0.00       0.00       0.00    
   5    0.00       0.00       0.00       0.00      8.237E-06  8.237E-06  8.237E-06   0.00       0.00       0.00       0.00    
   6    0.00       0.00       0.00      8.237E-06  8.237E-06  8.237E-06  8.237E-06   0.00       0.00       0.00       0.00    
   7    0.00       0.00       0.00       0.00      8.237E-06  8.237E-06  8.237E-06   0.00       0.00       0.00       0.00    
   8    0.00       0.00       0.00       0.00      8.237E-06  8.237E-06  8.237E-06   0.00       0.00       0.00       0.00    
   9    0.00       0.00       0.00       0.00       0.00       0.00       0.00       0.00       0.00       0.00       0.00    
  10    0.00       0.00       0.00       0.00       0.00       0.00       0.00       0.00       0.00       0.00       0.00    
  11    0.00       0.00       0.00       0.00       0.00       0.00       0.00       0.00       0.00       0.00       0.00    

 ...READING SWR1 PROCESS DATASET 9B



             2D LATERAL INFLOW DATA
 READING ON UNIT   61 WITH FORMAT: (11E12.4)           

           1          2          3          4          5          6          7          8          9         10         11
 .........................................................................................................................
   1    2.06       0.00       0.00       0.00       0.00       0.00       0.00       0.00       0.00       0.00       0.00    
   2    2.06       0.00       0.00       0.00       0.00       0.00       0.00       0.00       0.00       0.00       0.00    
   3    2.06       0.00       0.00       0.00       0.00       0.00       0.00       0.00       0.00       0.00       0.00    
   4    2.06       0.00       0.00       0.00       0.00       0.00       0.00       0.00       0.00       0.00       0.00    
   5    2.06       0.00       0.00       0.00       0.00       0.00       0.00       0.00       0.00       0.00       0.00    
   6    2.06       0.00       0.00       0.00       0.00       0.00       0.00       0.00       0.00       0.00       0.00    
   7    2.06       0.00       0.00       0.00       0.00       0.00       0.00       0.00       0.00       0.00       0.00    
   8    2.06       0.00       0.00       0.00       0.00       0.00       0.00       0.00       0.00       0.00       0.00    
   9    2.06       0.00       0.00       0.00       0.00       0.00       0.00       0.00       0.00       0.00       0.00    
  10    2.06       0.00       0.00       0.00       0.00       0.00       0.00       0.00       0.00       0.00       0.00    
  11    2.06       0.00       0.00       0.00       0.00       0.00       0.00       0.00       0.00       0.00       0.00    
 
 SOLVING FOR HEAD 
 INITIAL HNEW IS AN EXACT SOLUTION.

 OUTPUT CONTROL FOR STRESS PERIOD   15   TIME STEP    1
    SAVE BUDGET

 -------------------------------------------------------------------------------
                             SWR1 OUTPUT PRINT TIMES
                        STRESS PERIOD   15   TIME STEP     1
 --------------- --------------- --------------- --------------- ---------------
      50520.                                                                    
 -------------------------------------------------------------------------------
 
 SOLVING FOR HEAD 
 INITIAL HNEW IS AN EXACT SOLUTION.

 NO OUTPUT CONTROL FOR STRESS PERIOD   15   TIME STEP    2

 -------------------------------------------------------------------------------
                             SWR1 OUTPUT PRINT TIMES
                        STRESS PERIOD   15   TIME STEP     2
 --------------- --------------- --------------- --------------- ---------------
      50640.                                                                    
 -------------------------------------------------------------------------------
 
 SOLVING FOR HEAD 
 INITIAL HNEW IS AN EXACT SOLUTION.

 NO OUTPUT CONTROL FOR STRESS PERIOD   15   TIME STEP    3

 -------------------------------------------------------------------------------
                             SWR1 OUTPUT PRINT TIMES
                        STRESS PERIOD   15   TIME STEP     3
 --------------- --------------- --------------- --------------- ---------------
      50760.                                                                    
 -------------------------------------------------------------------------------
 
 SOLVING FOR HEAD 
 INITIAL HNEW IS AN EXACT SOLUTION.

 NO OUTPUT CONTROL FOR STRESS PERIOD   15   TIME STEP    4

 -------------------------------------------------------------------------------
                             SWR1 OUTPUT PRINT TIMES
                        STRESS PERIOD   15   TIME STEP     4
 --------------- --------------- --------------- --------------- ---------------
      50880.                                                                    
 -------------------------------------------------------------------------------
 
 SOLVING FOR HEAD 
 INITIAL HNEW IS AN EXACT SOLUTION.

 NO OUTPUT CONTROL FOR STRESS PERIOD   15   TIME STEP    5

 -------------------------------------------------------------------------------
                             SWR1 OUTPUT PRINT TIMES
                        STRESS PERIOD   15   TIME STEP     5
 --------------- --------------- --------------- --------------- ---------------
      51000.                                                                    
 -------------------------------------------------------------------------------
 
 SOLVING FOR HEAD 
 INITIAL HNEW IS AN EXACT SOLUTION.

 NO OUTPUT CONTROL FOR STRESS PERIOD   15   TIME STEP    6

 -------------------------------------------------------------------------------
                             SWR1 OUTPUT PRINT TIMES
                        STRESS PERIOD   15   TIME STEP     6
 --------------- --------------- --------------- --------------- ---------------
      51120.                                                                    
 -------------------------------------------------------------------------------
 
 SOLVING FOR HEAD 
 INITIAL HNEW IS AN EXACT SOLUTION.

 NO OUTPUT CONTROL FOR STRESS PERIOD   15   TIME STEP    7

 -------------------------------------------------------------------------------
                             SWR1 OUTPUT PRINT TIMES
                        STRESS PERIOD   15   TIME STEP     7
 --------------- --------------- --------------- --------------- ---------------
      51240.                                                                    
 -------------------------------------------------------------------------------
 
 SOLVING FOR HEAD 
 INITIAL HNEW IS AN EXACT SOLUTION.

 NO OUTPUT CONTROL FOR STRESS PERIOD   15   TIME STEP    8

 -------------------------------------------------------------------------------
                             SWR1 OUTPUT PRINT TIMES
                        STRESS PERIOD   15   TIME STEP     8
 --------------- --------------- --------------- --------------- ---------------
      51360.                                                                    
 -------------------------------------------------------------------------------
 
 SOLVING FOR HEAD 
 INITIAL HNEW IS AN EXACT SOLUTION.

 NO OUTPUT CONTROL FOR STRESS PERIOD   15   TIME STEP    9

 -------------------------------------------------------------------------------
                             SWR1 OUTPUT PRINT TIMES
                        STRESS PERIOD   15   TIME STEP     9
 --------------- --------------- --------------- --------------- ---------------
      51480.                                                                    
 -------------------------------------------------------------------------------
 
 SOLVING FOR HEAD 
 INITIAL HNEW IS AN EXACT SOLUTION.

 NO OUTPUT CONTROL FOR STRESS PERIOD   15   TIME STEP   10

 -------------------------------------------------------------------------------
                             SWR1 OUTPUT PRINT TIMES
                        STRESS PERIOD   15   TIME STEP    10
 --------------- --------------- --------------- --------------- ---------------
      51600.                                                                    
 -------------------------------------------------------------------------------
 
 SOLVING FOR HEAD 
 INITIAL HNEW IS AN EXACT SOLUTION.

 NO OUTPUT CONTROL FOR STRESS PERIOD   15   TIME STEP   11

 -------------------------------------------------------------------------------
                             SWR1 OUTPUT PRINT TIMES
                        STRESS PERIOD   15   TIME STEP    11
 --------------- --------------- --------------- --------------- ---------------
      51720.                                                                    
 -------------------------------------------------------------------------------
 
 SOLVING FOR HEAD 
 INITIAL HNEW IS AN EXACT SOLUTION.

 NO OUTPUT CONTROL FOR STRESS PERIOD   15   TIME STEP   12

 -------------------------------------------------------------------------------
                             SWR1 OUTPUT PRINT TIMES
                        STRESS PERIOD   15   TIME STEP    12
 --------------- --------------- --------------- --------------- ---------------
      51840.                                                                    
 -------------------------------------------------------------------------------
 
 SOLVING FOR HEAD 
 INITIAL HNEW IS AN EXACT SOLUTION.

 NO OUTPUT CONTROL FOR STRESS PERIOD   15   TIME STEP   13

 -------------------------------------------------------------------------------
                             SWR1 OUTPUT PRINT TIMES
                        STRESS PERIOD   15   TIME STEP    13
 --------------- --------------- --------------- --------------- ---------------
      51960.                                                                    
 -------------------------------------------------------------------------------
 
 SOLVING FOR HEAD 
 INITIAL HNEW IS AN EXACT SOLUTION.

 NO OUTPUT CONTROL FOR STRESS PERIOD   15   TIME STEP   14

 -------------------------------------------------------------------------------
                             SWR1 OUTPUT PRINT TIMES
                        STRESS PERIOD   15   TIME STEP    14
 --------------- --------------- --------------- --------------- ---------------
      52080.                                                                    
 -------------------------------------------------------------------------------
 
 SOLVING FOR HEAD 
 INITIAL HNEW IS AN EXACT SOLUTION.

 NO OUTPUT CONTROL FOR STRESS PERIOD   15   TIME STEP   15

 -------------------------------------------------------------------------------
                             SWR1 OUTPUT PRINT TIMES
                        STRESS PERIOD   15   TIME STEP    15
 --------------- --------------- --------------- --------------- ---------------
      52200.                                                                    
 -------------------------------------------------------------------------------
 
 SOLVING FOR HEAD 
 INITIAL HNEW IS AN EXACT SOLUTION.

 NO OUTPUT CONTROL FOR STRESS PERIOD   15   TIME STEP   16

 -------------------------------------------------------------------------------
                             SWR1 OUTPUT PRINT TIMES
                        STRESS PERIOD   15   TIME STEP    16
 --------------- --------------- --------------- --------------- ---------------
      52320.                                                                    
 -------------------------------------------------------------------------------
 
 SOLVING FOR HEAD 
 INITIAL HNEW IS AN EXACT SOLUTION.

 NO OUTPUT CONTROL FOR STRESS PERIOD   15   TIME STEP   17

 -------------------------------------------------------------------------------
                             SWR1 OUTPUT PRINT TIMES
                        STRESS PERIOD   15   TIME STEP    17
 --------------- --------------- --------------- --------------- ---------------
      52440.                                                                    
 -------------------------------------------------------------------------------
 
 SOLVING FOR HEAD 
 INITIAL HNEW IS AN EXACT SOLUTION.

 NO OUTPUT CONTROL FOR STRESS PERIOD   15   TIME STEP   18

 -------------------------------------------------------------------------------
                             SWR1 OUTPUT PRINT TIMES
                        STRESS PERIOD   15   TIME STEP    18
 --------------- --------------- --------------- --------------- ---------------
      52560.                                                                    
 -------------------------------------------------------------------------------
 
 SOLVING FOR HEAD 
 INITIAL HNEW IS AN EXACT SOLUTION.

 NO OUTPUT CONTROL FOR STRESS PERIOD   15   TIME STEP   19

 -------------------------------------------------------------------------------
                             SWR1 OUTPUT PRINT TIMES
                        STRESS PERIOD   15   TIME STEP    19
 --------------- --------------- --------------- --------------- ---------------
      52680.                                                                    
 -------------------------------------------------------------------------------
 
 SOLVING FOR HEAD 
 INITIAL HNEW IS AN EXACT SOLUTION.

 NO OUTPUT CONTROL FOR STRESS PERIOD   15   TIME STEP   20

 -------------------------------------------------------------------------------
                             SWR1 OUTPUT PRINT TIMES
                        STRESS PERIOD   15   TIME STEP    20
 --------------- --------------- --------------- --------------- ---------------
      52800.                                                                    
 -------------------------------------------------------------------------------
 
 SOLVING FOR HEAD 
 INITIAL HNEW IS AN EXACT SOLUTION.

 NO OUTPUT CONTROL FOR STRESS PERIOD   15   TIME STEP   21

 -------------------------------------------------------------------------------
                             SWR1 OUTPUT PRINT TIMES
                        STRESS PERIOD   15   TIME STEP    21
 --------------- --------------- --------------- --------------- ---------------
      52920.                                                                    
 -------------------------------------------------------------------------------
 
 SOLVING FOR HEAD 
 INITIAL HNEW IS AN EXACT SOLUTION.

 NO OUTPUT CONTROL FOR STRESS PERIOD   15   TIME STEP   22

 -------------------------------------------------------------------------------
                             SWR1 OUTPUT PRINT TIMES
                        STRESS PERIOD   15   TIME STEP    22
 --------------- --------------- --------------- --------------- ---------------
      53040.                                                                    
 -------------------------------------------------------------------------------
 
 SOLVING FOR HEAD 
 INITIAL HNEW IS AN EXACT SOLUTION.

 NO OUTPUT CONTROL FOR STRESS PERIOD   15   TIME STEP   23

 -------------------------------------------------------------------------------
                             SWR1 OUTPUT PRINT TIMES
                        STRESS PERIOD   15   TIME STEP    23
 --------------- --------------- --------------- --------------- ---------------
      53160.                                                                    
 -------------------------------------------------------------------------------
 
 SOLVING FOR HEAD 
 INITIAL HNEW IS AN EXACT SOLUTION.

 NO OUTPUT CONTROL FOR STRESS PERIOD   15   TIME STEP   24

 -------------------------------------------------------------------------------
                             SWR1 OUTPUT PRINT TIMES
                        STRESS PERIOD   15   TIME STEP    24
 --------------- --------------- --------------- --------------- ---------------
      53280.                                                                    
 -------------------------------------------------------------------------------
 
 SOLVING FOR HEAD 
 INITIAL HNEW IS AN EXACT SOLUTION.

 NO OUTPUT CONTROL FOR STRESS PERIOD   15   TIME STEP   25

 -------------------------------------------------------------------------------
                             SWR1 OUTPUT PRINT TIMES
                        STRESS PERIOD   15   TIME STEP    25
 --------------- --------------- --------------- --------------- ---------------
      53400.                                                                    
 -------------------------------------------------------------------------------
 
 SOLVING FOR HEAD 
 INITIAL HNEW IS AN EXACT SOLUTION.

 NO OUTPUT CONTROL FOR STRESS PERIOD   15   TIME STEP   26

 -------------------------------------------------------------------------------
                             SWR1 OUTPUT PRINT TIMES
                        STRESS PERIOD   15   TIME STEP    26
 --------------- --------------- --------------- --------------- ---------------
      53520.                                                                    
 -------------------------------------------------------------------------------
 
 SOLVING FOR HEAD 
 INITIAL HNEW IS AN EXACT SOLUTION.

 NO OUTPUT CONTROL FOR STRESS PERIOD   15   TIME STEP   27

 -------------------------------------------------------------------------------
                             SWR1 OUTPUT PRINT TIMES
                        STRESS PERIOD   15   TIME STEP    27
 --------------- --------------- --------------- --------------- ---------------
      53640.                                                                    
 -------------------------------------------------------------------------------
 
 SOLVING FOR HEAD 
 INITIAL HNEW IS AN EXACT SOLUTION.

 NO OUTPUT CONTROL FOR STRESS PERIOD   15   TIME STEP   28

 -------------------------------------------------------------------------------
                             SWR1 OUTPUT PRINT TIMES
                        STRESS PERIOD   15   TIME STEP    28
 --------------- --------------- --------------- --------------- ---------------
      53760.                                                                    
 -------------------------------------------------------------------------------
 
 SOLVING FOR HEAD 
 INITIAL HNEW IS AN EXACT SOLUTION.

 NO OUTPUT CONTROL FOR STRESS PERIOD   15   TIME STEP   29

 -------------------------------------------------------------------------------
                             SWR1 OUTPUT PRINT TIMES
                        STRESS PERIOD   15   TIME STEP    29
 --------------- --------------- --------------- --------------- ---------------
      53880.                                                                    
 -------------------------------------------------------------------------------
 
 SOLVING FOR HEAD 
 INITIAL HNEW IS AN EXACT SOLUTION.

 NO OUTPUT CONTROL FOR STRESS PERIOD   15   TIME STEP   30

 -------------------------------------------------------------------------------
                             SWR1 OUTPUT PRINT TIMES
                        STRESS PERIOD   15   TIME STEP    30
 --------------- --------------- --------------- --------------- ---------------
      54000.                                                                    
 -------------------------------------------------------------------------------


                    VOLUMETRIC SURFACE WATER BUDGET FOR ENTIRE MODEL
                    AT END OF TIME STEP    30 IN STRESS PERIOD   15
  -----------------------------------------------------------------------------------

        CUMULATIVE VOLUMES      L**3       RATES FOR THIS TIME STEP      L**3/T
        ------------------                 ------------------------

              IN:                                      IN:
              ---                                      ---
          LATERAL FLOW  =      592255.9375         LATERAL FLOW  =          22.6523
         UNSAT. RUNOFF  =           0.0000        UNSAT. RUNOFF  =           0.0000
              RAINFALL  =      861460.5625             RAINFALL  =          32.9492
           EVAPORATION  =           0.0000          EVAPORATION  =           0.0000
         REACH-AQ FLOW  =           0.0000        REACH-AQ FLOW  =           0.0000
         EXTERNAL FLOW  =           0.0000        EXTERNAL FLOW  =           0.0000
         BOUNDARY FLOW  =           0.0000        BOUNDARY FLOW  =           0.0000
         CONSTANT FLOW  =           0.0000        CONSTANT FLOW  =           0.0000
               STORAGE  =       12817.0322              STORAGE  =           0.0000

               TOTAL IN =     1466533.5000              TOTAL IN =          55.6015

             OUT:                                     OUT:
             ----                                     ----
          LATERAL FLOW  =           0.0000         LATERAL FLOW  =           0.0000
         UNSAT. RUNOFF  =           0.0000        UNSAT. RUNOFF  =           0.0000
              RAINFALL  =           0.0000             RAINFALL  =           0.0000
           EVAPORATION  =           0.0000          EVAPORATION  =           0.0000
         REACH-AQ FLOW  =           0.0000        REACH-AQ FLOW  =           0.0000
         EXTERNAL FLOW  =           0.0000        EXTERNAL FLOW  =           0.0000
         BOUNDARY FLOW  =           0.0000        BOUNDARY FLOW  =           0.0000
         CONSTANT FLOW  =       32305.8809        CONSTANT FLOW  =           0.6146
               STORAGE  =     1434228.0000              STORAGE  =          54.9871

              TOTAL OUT =     1466533.8750             TOTAL OUT =          55.6017

               IN - OUT =          -0.3750              IN - OUT =      -2.0599E-04

    PERCENT DISCREPANCY =           0.00     PERCENT DISCREPANCY =           0.00

1
  VOLUMETRIC BUDGET FOR ENTIRE MODEL AT END OF TIME STEP   30, STRESS PERIOD  15
  ------------------------------------------------------------------------------

     CUMULATIVE VOLUMES      L**3       RATES FOR THIS TIME STEP      L**3/T
     ------------------                 ------------------------

           IN:                                      IN:
           ---                                      ---
             STORAGE =           0.0000               STORAGE =           0.0000
       CONSTANT HEAD =           0.0000         CONSTANT HEAD =           0.0000
         SWR LEAKAGE =           0.0000           SWR LEAKAGE =           0.0000
            SWR GWET =           0.0000              SWR GWET =           0.0000

            TOTAL IN =           0.0000              TOTAL IN =           0.0000

          OUT:                                     OUT:
          ----                                     ----
             STORAGE =           0.0000               STORAGE =           0.0000
       CONSTANT HEAD =           0.0000         CONSTANT HEAD =           0.0000
         SWR LEAKAGE =           0.0000           SWR LEAKAGE =           0.0000
            SWR GWET =           0.0000              SWR GWET =           0.0000

           TOTAL OUT =           0.0000             TOTAL OUT =           0.0000

            IN - OUT =           0.0000              IN - OUT =           0.0000

 PERCENT DISCREPANCY =           0.00     PERCENT DISCREPANCY =           0.00






         TIME SUMMARY AT END OF TIME STEP   30 IN STRESS PERIOD   15
                    SECONDS     MINUTES      HOURS       DAYS        YEARS
                    -----------------------------------------------------------
   TIME STEP LENGTH  120.00      2.0000     3.33333E-02 1.38889E-03 3.80257E-06
 STRESS PERIOD TIME  3600.0      60.000      1.0000     4.16667E-02 1.14077E-04
         TOTAL TIME  54000.      900.00      15.000     0.62500     1.71116E-03
1
1
                            STRESS PERIOD NO.   16, LENGTH =   3600.000    
                            -----------------------------------------------

                              NUMBER OF TIME STEPS =    30

                               MULTIPLIER FOR DELT =     1.000

                            INITIAL TIME STEP SIZE =   120.0000    

 ...READING SWR1 PROCESS DATASET 5

 ...READING SWR1 PROCESS DATASET 7B



                   2D RAINFALL DATA
 READING ON UNIT   61 WITH FORMAT: (11E12.4)           

           1          2          3          4          5          6          7          8          9         10         11
 .........................................................................................................................
   1    0.00       0.00       0.00       0.00       0.00       0.00       0.00       0.00       0.00       0.00       0.00    
   2    0.00       0.00       0.00       0.00       0.00       0.00       0.00       0.00       0.00       0.00       0.00    
   3    0.00       0.00       0.00       0.00       0.00       0.00       0.00       0.00       0.00       0.00       0.00    
   4    0.00       0.00       0.00       0.00      5.173E-06  5.173E-06  5.173E-06   0.00       0.00       0.00       0.00    
   5    0.00       0.00       0.00       0.00      5.173E-06  5.173E-06  5.173E-06   0.00       0.00       0.00       0.00    
   6    0.00       0.00       0.00      5.173E-06  5.173E-06  5.173E-06  5.173E-06   0.00       0.00       0.00       0.00    
   7    0.00       0.00       0.00       0.00      5.173E-06  5.173E-06  5.173E-06   0.00       0.00       0.00       0.00    
   8    0.00       0.00       0.00       0.00      5.173E-06  5.173E-06  5.173E-06   0.00       0.00       0.00       0.00    
   9    0.00       0.00       0.00       0.00       0.00       0.00       0.00       0.00       0.00       0.00       0.00    
  10    0.00       0.00       0.00       0.00       0.00       0.00       0.00       0.00       0.00       0.00       0.00    
  11    0.00       0.00       0.00       0.00       0.00       0.00       0.00       0.00       0.00       0.00       0.00    

 ...READING SWR1 PROCESS DATASET 9B



             2D LATERAL INFLOW DATA
 READING ON UNIT   61 WITH FORMAT: (11E12.4)           

           1          2          3          4          5          6          7          8          9         10         11
 .........................................................................................................................
   1    1.29       0.00       0.00       0.00       0.00       0.00       0.00       0.00       0.00       0.00       0.00    
   2    1.29       0.00       0.00       0.00       0.00       0.00       0.00       0.00       0.00       0.00       0.00    
   3    1.29       0.00       0.00       0.00       0.00       0.00       0.00       0.00       0.00       0.00       0.00    
   4    1.29       0.00       0.00       0.00       0.00       0.00       0.00       0.00       0.00       0.00       0.00    
   5    1.29       0.00       0.00       0.00       0.00       0.00       0.00       0.00       0.00       0.00       0.00    
   6    1.29       0.00       0.00       0.00       0.00       0.00       0.00       0.00       0.00       0.00       0.00    
   7    1.29       0.00       0.00       0.00       0.00       0.00       0.00       0.00       0.00       0.00       0.00    
   8    1.29       0.00       0.00       0.00       0.00       0.00       0.00       0.00       0.00       0.00       0.00    
   9    1.29       0.00       0.00       0.00       0.00       0.00       0.00       0.00       0.00       0.00       0.00    
  10    1.29       0.00       0.00       0.00       0.00       0.00       0.00       0.00       0.00       0.00       0.00    
  11    1.29       0.00       0.00       0.00       0.00       0.00       0.00       0.00       0.00       0.00       0.00    
 
 SOLVING FOR HEAD 
 INITIAL HNEW IS AN EXACT SOLUTION.

 OUTPUT CONTROL FOR STRESS PERIOD   16   TIME STEP    1
    SAVE BUDGET

 -------------------------------------------------------------------------------
                             SWR1 OUTPUT PRINT TIMES
                        STRESS PERIOD   16   TIME STEP     1
 --------------- --------------- --------------- --------------- ---------------
      54120.                                                                    
 -------------------------------------------------------------------------------
 
 SOLVING FOR HEAD 
 INITIAL HNEW IS AN EXACT SOLUTION.

 NO OUTPUT CONTROL FOR STRESS PERIOD   16   TIME STEP    2

 -------------------------------------------------------------------------------
                             SWR1 OUTPUT PRINT TIMES
                        STRESS PERIOD   16   TIME STEP     2
 --------------- --------------- --------------- --------------- ---------------
      54240.                                                                    
 -------------------------------------------------------------------------------
 
 SOLVING FOR HEAD 
 INITIAL HNEW IS AN EXACT SOLUTION.

 NO OUTPUT CONTROL FOR STRESS PERIOD   16   TIME STEP    3

 -------------------------------------------------------------------------------
                             SWR1 OUTPUT PRINT TIMES
                        STRESS PERIOD   16   TIME STEP     3
 --------------- --------------- --------------- --------------- ---------------
      54360.                                                                    
 -------------------------------------------------------------------------------
 
 SOLVING FOR HEAD 
 INITIAL HNEW IS AN EXACT SOLUTION.

 NO OUTPUT CONTROL FOR STRESS PERIOD   16   TIME STEP    4

 -------------------------------------------------------------------------------
                             SWR1 OUTPUT PRINT TIMES
                        STRESS PERIOD   16   TIME STEP     4
 --------------- --------------- --------------- --------------- ---------------
      54480.                                                                    
 -------------------------------------------------------------------------------
 
 SOLVING FOR HEAD 
 INITIAL HNEW IS AN EXACT SOLUTION.

 NO OUTPUT CONTROL FOR STRESS PERIOD   16   TIME STEP    5

 -------------------------------------------------------------------------------
                             SWR1 OUTPUT PRINT TIMES
                        STRESS PERIOD   16   TIME STEP     5
 --------------- --------------- --------------- --------------- ---------------
      54600.                                                                    
 -------------------------------------------------------------------------------
 
 SOLVING FOR HEAD 
 INITIAL HNEW IS AN EXACT SOLUTION.

 NO OUTPUT CONTROL FOR STRESS PERIOD   16   TIME STEP    6

 -------------------------------------------------------------------------------
                             SWR1 OUTPUT PRINT TIMES
                        STRESS PERIOD   16   TIME STEP     6
 --------------- --------------- --------------- --------------- ---------------
      54720.                                                                    
 -------------------------------------------------------------------------------
 
 SOLVING FOR HEAD 
 INITIAL HNEW IS AN EXACT SOLUTION.

 NO OUTPUT CONTROL FOR STRESS PERIOD   16   TIME STEP    7

 -------------------------------------------------------------------------------
                             SWR1 OUTPUT PRINT TIMES
                        STRESS PERIOD   16   TIME STEP     7
 --------------- --------------- --------------- --------------- ---------------
      54840.                                                                    
 -------------------------------------------------------------------------------
 
 SOLVING FOR HEAD 
 INITIAL HNEW IS AN EXACT SOLUTION.

 NO OUTPUT CONTROL FOR STRESS PERIOD   16   TIME STEP    8

 -------------------------------------------------------------------------------
                             SWR1 OUTPUT PRINT TIMES
                        STRESS PERIOD   16   TIME STEP     8
 --------------- --------------- --------------- --------------- ---------------
      54960.                                                                    
 -------------------------------------------------------------------------------
 
 SOLVING FOR HEAD 
 INITIAL HNEW IS AN EXACT SOLUTION.

 NO OUTPUT CONTROL FOR STRESS PERIOD   16   TIME STEP    9

 -------------------------------------------------------------------------------
                             SWR1 OUTPUT PRINT TIMES
                        STRESS PERIOD   16   TIME STEP     9
 --------------- --------------- --------------- --------------- ---------------
      55080.                                                                    
 -------------------------------------------------------------------------------
 
 SOLVING FOR HEAD 
 INITIAL HNEW IS AN EXACT SOLUTION.

 NO OUTPUT CONTROL FOR STRESS PERIOD   16   TIME STEP   10

 -------------------------------------------------------------------------------
                             SWR1 OUTPUT PRINT TIMES
                        STRESS PERIOD   16   TIME STEP    10
 --------------- --------------- --------------- --------------- ---------------
      55200.                                                                    
 -------------------------------------------------------------------------------
 
 SOLVING FOR HEAD 
 INITIAL HNEW IS AN EXACT SOLUTION.

 NO OUTPUT CONTROL FOR STRESS PERIOD   16   TIME STEP   11

 -------------------------------------------------------------------------------
                             SWR1 OUTPUT PRINT TIMES
                        STRESS PERIOD   16   TIME STEP    11
 --------------- --------------- --------------- --------------- ---------------
      55320.                                                                    
 -------------------------------------------------------------------------------
 
 SOLVING FOR HEAD 
 INITIAL HNEW IS AN EXACT SOLUTION.

 NO OUTPUT CONTROL FOR STRESS PERIOD   16   TIME STEP   12

 -------------------------------------------------------------------------------
                             SWR1 OUTPUT PRINT TIMES
                        STRESS PERIOD   16   TIME STEP    12
 --------------- --------------- --------------- --------------- ---------------
      55440.                                                                    
 -------------------------------------------------------------------------------
 
 SOLVING FOR HEAD 
 INITIAL HNEW IS AN EXACT SOLUTION.

 NO OUTPUT CONTROL FOR STRESS PERIOD   16   TIME STEP   13

 -------------------------------------------------------------------------------
                             SWR1 OUTPUT PRINT TIMES
                        STRESS PERIOD   16   TIME STEP    13
 --------------- --------------- --------------- --------------- ---------------
      55560.                                                                    
 -------------------------------------------------------------------------------
 
 SOLVING FOR HEAD 
 INITIAL HNEW IS AN EXACT SOLUTION.

 NO OUTPUT CONTROL FOR STRESS PERIOD   16   TIME STEP   14

 -------------------------------------------------------------------------------
                             SWR1 OUTPUT PRINT TIMES
                        STRESS PERIOD   16   TIME STEP    14
 --------------- --------------- --------------- --------------- ---------------
      55680.                                                                    
 -------------------------------------------------------------------------------
 
 SOLVING FOR HEAD 
 INITIAL HNEW IS AN EXACT SOLUTION.

 NO OUTPUT CONTROL FOR STRESS PERIOD   16   TIME STEP   15

 -------------------------------------------------------------------------------
                             SWR1 OUTPUT PRINT TIMES
                        STRESS PERIOD   16   TIME STEP    15
 --------------- --------------- --------------- --------------- ---------------
      55800.                                                                    
 -------------------------------------------------------------------------------
 
 SOLVING FOR HEAD 
 INITIAL HNEW IS AN EXACT SOLUTION.

 NO OUTPUT CONTROL FOR STRESS PERIOD   16   TIME STEP   16

 -------------------------------------------------------------------------------
                             SWR1 OUTPUT PRINT TIMES
                        STRESS PERIOD   16   TIME STEP    16
 --------------- --------------- --------------- --------------- ---------------
      55920.                                                                    
 -------------------------------------------------------------------------------
 
 SOLVING FOR HEAD 
 INITIAL HNEW IS AN EXACT SOLUTION.

 NO OUTPUT CONTROL FOR STRESS PERIOD   16   TIME STEP   17

 -------------------------------------------------------------------------------
                             SWR1 OUTPUT PRINT TIMES
                        STRESS PERIOD   16   TIME STEP    17
 --------------- --------------- --------------- --------------- ---------------
      56040.                                                                    
 -------------------------------------------------------------------------------
 
 SOLVING FOR HEAD 
 INITIAL HNEW IS AN EXACT SOLUTION.

 NO OUTPUT CONTROL FOR STRESS PERIOD   16   TIME STEP   18

 -------------------------------------------------------------------------------
                             SWR1 OUTPUT PRINT TIMES
                        STRESS PERIOD   16   TIME STEP    18
 --------------- --------------- --------------- --------------- ---------------
      56160.                                                                    
 -------------------------------------------------------------------------------
 
 SOLVING FOR HEAD 
 INITIAL HNEW IS AN EXACT SOLUTION.

 NO OUTPUT CONTROL FOR STRESS PERIOD   16   TIME STEP   19

 -------------------------------------------------------------------------------
                             SWR1 OUTPUT PRINT TIMES
                        STRESS PERIOD   16   TIME STEP    19
 --------------- --------------- --------------- --------------- ---------------
      56280.                                                                    
 -------------------------------------------------------------------------------
 
 SOLVING FOR HEAD 
 INITIAL HNEW IS AN EXACT SOLUTION.

 NO OUTPUT CONTROL FOR STRESS PERIOD   16   TIME STEP   20

 -------------------------------------------------------------------------------
                             SWR1 OUTPUT PRINT TIMES
                        STRESS PERIOD   16   TIME STEP    20
 --------------- --------------- --------------- --------------- ---------------
      56400.                                                                    
 -------------------------------------------------------------------------------
 
 SOLVING FOR HEAD 
 INITIAL HNEW IS AN EXACT SOLUTION.

 NO OUTPUT CONTROL FOR STRESS PERIOD   16   TIME STEP   21

 -------------------------------------------------------------------------------
                             SWR1 OUTPUT PRINT TIMES
                        STRESS PERIOD   16   TIME STEP    21
 --------------- --------------- --------------- --------------- ---------------
      56520.                                                                    
 -------------------------------------------------------------------------------
 
 SOLVING FOR HEAD 
 INITIAL HNEW IS AN EXACT SOLUTION.

 NO OUTPUT CONTROL FOR STRESS PERIOD   16   TIME STEP   22

 -------------------------------------------------------------------------------
                             SWR1 OUTPUT PRINT TIMES
                        STRESS PERIOD   16   TIME STEP    22
 --------------- --------------- --------------- --------------- ---------------
      56640.                                                                    
 -------------------------------------------------------------------------------
 
 SOLVING FOR HEAD 
 INITIAL HNEW IS AN EXACT SOLUTION.

 NO OUTPUT CONTROL FOR STRESS PERIOD   16   TIME STEP   23

 -------------------------------------------------------------------------------
                             SWR1 OUTPUT PRINT TIMES
                        STRESS PERIOD   16   TIME STEP    23
 --------------- --------------- --------------- --------------- ---------------
      56760.                                                                    
 -------------------------------------------------------------------------------
 
 SOLVING FOR HEAD 
 INITIAL HNEW IS AN EXACT SOLUTION.

 NO OUTPUT CONTROL FOR STRESS PERIOD   16   TIME STEP   24

 -------------------------------------------------------------------------------
                             SWR1 OUTPUT PRINT TIMES
                        STRESS PERIOD   16   TIME STEP    24
 --------------- --------------- --------------- --------------- ---------------
      56880.                                                                    
 -------------------------------------------------------------------------------
 
 SOLVING FOR HEAD 
 INITIAL HNEW IS AN EXACT SOLUTION.

 NO OUTPUT CONTROL FOR STRESS PERIOD   16   TIME STEP   25

 -------------------------------------------------------------------------------
                             SWR1 OUTPUT PRINT TIMES
                        STRESS PERIOD   16   TIME STEP    25
 --------------- --------------- --------------- --------------- ---------------
      57000.                                                                    
 -------------------------------------------------------------------------------
 
 SOLVING FOR HEAD 
 INITIAL HNEW IS AN EXACT SOLUTION.

 NO OUTPUT CONTROL FOR STRESS PERIOD   16   TIME STEP   26

 -------------------------------------------------------------------------------
                             SWR1 OUTPUT PRINT TIMES
                        STRESS PERIOD   16   TIME STEP    26
 --------------- --------------- --------------- --------------- ---------------
      57120.                                                                    
 -------------------------------------------------------------------------------
 
 SOLVING FOR HEAD 
 INITIAL HNEW IS AN EXACT SOLUTION.

 NO OUTPUT CONTROL FOR STRESS PERIOD   16   TIME STEP   27

 -------------------------------------------------------------------------------
                             SWR1 OUTPUT PRINT TIMES
                        STRESS PERIOD   16   TIME STEP    27
 --------------- --------------- --------------- --------------- ---------------
      57240.                                                                    
 -------------------------------------------------------------------------------
 
 SOLVING FOR HEAD 
 INITIAL HNEW IS AN EXACT SOLUTION.

 NO OUTPUT CONTROL FOR STRESS PERIOD   16   TIME STEP   28

 -------------------------------------------------------------------------------
                             SWR1 OUTPUT PRINT TIMES
                        STRESS PERIOD   16   TIME STEP    28
 --------------- --------------- --------------- --------------- ---------------
      57360.                                                                    
 -------------------------------------------------------------------------------
 
 SOLVING FOR HEAD 
 INITIAL HNEW IS AN EXACT SOLUTION.

 NO OUTPUT CONTROL FOR STRESS PERIOD   16   TIME STEP   29

 -------------------------------------------------------------------------------
                             SWR1 OUTPUT PRINT TIMES
                        STRESS PERIOD   16   TIME STEP    29
 --------------- --------------- --------------- --------------- ---------------
      57480.                                                                    
 -------------------------------------------------------------------------------
 
 SOLVING FOR HEAD 
 INITIAL HNEW IS AN EXACT SOLUTION.

 NO OUTPUT CONTROL FOR STRESS PERIOD   16   TIME STEP   30

 -------------------------------------------------------------------------------
                             SWR1 OUTPUT PRINT TIMES
                        STRESS PERIOD   16   TIME STEP    30
 --------------- --------------- --------------- --------------- ---------------
      57600.                                                                    
 -------------------------------------------------------------------------------


                    VOLUMETRIC SURFACE WATER BUDGET FOR ENTIRE MODEL
                    AT END OF TIME STEP    30 IN STRESS PERIOD   16
  -----------------------------------------------------------------------------------

        CUMULATIVE VOLUMES      L**3       RATES FOR THIS TIME STEP      L**3/T
        ------------------                 ------------------------

              IN:                                      IN:
              ---                                      ---
          LATERAL FLOW  =      643465.9375         LATERAL FLOW  =          14.2252
         UNSAT. RUNOFF  =           0.0000        UNSAT. RUNOFF  =           0.0000
              RAINFALL  =      935952.4375             RAINFALL  =          20.6920
           EVAPORATION  =           0.0000          EVAPORATION  =           0.0000
         REACH-AQ FLOW  =           0.0000        REACH-AQ FLOW  =           0.0000
         EXTERNAL FLOW  =           0.0000        EXTERNAL FLOW  =           0.0000
         BOUNDARY FLOW  =           0.0000        BOUNDARY FLOW  =           0.0000
         CONSTANT FLOW  =           0.0000        CONSTANT FLOW  =           0.0000
               STORAGE  =       22685.1836              STORAGE  =           2.4382

               TOTAL IN =     1602103.5000              TOTAL IN =          37.3554

             OUT:                                     OUT:
             ----                                     ----
          LATERAL FLOW  =           0.0000         LATERAL FLOW  =           0.0000
         UNSAT. RUNOFF  =           0.0000        UNSAT. RUNOFF  =           0.0000
              RAINFALL  =           0.0000             RAINFALL  =           0.0000
           EVAPORATION  =           0.0000          EVAPORATION  =           0.0000
         REACH-AQ FLOW  =           0.0000        REACH-AQ FLOW  =           0.0000
         EXTERNAL FLOW  =           0.0000        EXTERNAL FLOW  =           0.0000
         BOUNDARY FLOW  =           0.0000        BOUNDARY FLOW  =           0.0000
         CONSTANT FLOW  =       34551.1016        CONSTANT FLOW  =           0.6343
               STORAGE  =     1567554.6250              STORAGE  =          36.7216

              TOTAL OUT =     1602105.7500             TOTAL OUT =          37.3558

               IN - OUT =          -2.2500              IN - OUT =      -4.8447E-04

    PERCENT DISCREPANCY =           0.00     PERCENT DISCREPANCY =           0.00

1
  VOLUMETRIC BUDGET FOR ENTIRE MODEL AT END OF TIME STEP   30, STRESS PERIOD  16
  ------------------------------------------------------------------------------

     CUMULATIVE VOLUMES      L**3       RATES FOR THIS TIME STEP      L**3/T
     ------------------                 ------------------------

           IN:                                      IN:
           ---                                      ---
             STORAGE =           0.0000               STORAGE =           0.0000
       CONSTANT HEAD =           0.0000         CONSTANT HEAD =           0.0000
         SWR LEAKAGE =           0.0000           SWR LEAKAGE =           0.0000
            SWR GWET =           0.0000              SWR GWET =           0.0000

            TOTAL IN =           0.0000              TOTAL IN =           0.0000

          OUT:                                     OUT:
          ----                                     ----
             STORAGE =           0.0000               STORAGE =           0.0000
       CONSTANT HEAD =           0.0000         CONSTANT HEAD =           0.0000
         SWR LEAKAGE =           0.0000           SWR LEAKAGE =           0.0000
            SWR GWET =           0.0000              SWR GWET =           0.0000

           TOTAL OUT =           0.0000             TOTAL OUT =           0.0000

            IN - OUT =           0.0000              IN - OUT =           0.0000

 PERCENT DISCREPANCY =           0.00     PERCENT DISCREPANCY =           0.00






         TIME SUMMARY AT END OF TIME STEP   30 IN STRESS PERIOD   16
                    SECONDS     MINUTES      HOURS       DAYS        YEARS
                    -----------------------------------------------------------
   TIME STEP LENGTH  120.00      2.0000     3.33333E-02 1.38889E-03 3.80257E-06
 STRESS PERIOD TIME  3600.0      60.000      1.0000     4.16667E-02 1.14077E-04
         TOTAL TIME  57600.      960.00      16.000     0.66667     1.82523E-03
1
1
                            STRESS PERIOD NO.   17, LENGTH =   3600.000    
                            -----------------------------------------------

                              NUMBER OF TIME STEPS =    30

                               MULTIPLIER FOR DELT =     1.000

                            INITIAL TIME STEP SIZE =   120.0000    

 ...READING SWR1 PROCESS DATASET 5

 ...READING SWR1 PROCESS DATASET 7B



                   2D RAINFALL DATA
 READING ON UNIT   61 WITH FORMAT: (11E12.4)           

           1          2          3          4          5          6          7          8          9         10         11
 .........................................................................................................................
   1    0.00       0.00       0.00       0.00       0.00       0.00       0.00       0.00       0.00       0.00       0.00    
   2    0.00       0.00       0.00       0.00       0.00       0.00       0.00       0.00       0.00       0.00       0.00    
   3    0.00       0.00       0.00       0.00       0.00       0.00       0.00       0.00       0.00       0.00       0.00    
   4    0.00       0.00       0.00       0.00      2.697E-06  2.697E-06  2.697E-06   0.00       0.00       0.00       0.00    
   5    0.00       0.00       0.00       0.00      2.697E-06  2.697E-06  2.697E-06   0.00       0.00       0.00       0.00    
   6    0.00       0.00       0.00      2.697E-06  2.697E-06  2.697E-06  2.697E-06   0.00       0.00       0.00       0.00    
   7    0.00       0.00       0.00       0.00      2.697E-06  2.697E-06  2.697E-06   0.00       0.00       0.00       0.00    
   8    0.00       0.00       0.00       0.00      2.697E-06  2.697E-06  2.697E-06   0.00       0.00       0.00       0.00    
   9    0.00       0.00       0.00       0.00       0.00       0.00       0.00       0.00       0.00       0.00       0.00    
  10    0.00       0.00       0.00       0.00       0.00       0.00       0.00       0.00       0.00       0.00       0.00    
  11    0.00       0.00       0.00       0.00       0.00       0.00       0.00       0.00       0.00       0.00       0.00    

 ...READING SWR1 PROCESS DATASET 9B



             2D LATERAL INFLOW DATA
 READING ON UNIT   61 WITH FORMAT: (11E12.4)           

           1          2          3          4          5          6          7          8          9         10         11
 .........................................................................................................................
   1   0.674       0.00       0.00       0.00       0.00       0.00       0.00       0.00       0.00       0.00       0.00    
   2   0.674       0.00       0.00       0.00       0.00       0.00       0.00       0.00       0.00       0.00       0.00    
   3   0.674       0.00       0.00       0.00       0.00       0.00       0.00       0.00       0.00       0.00       0.00    
   4   0.674       0.00       0.00       0.00       0.00       0.00       0.00       0.00       0.00       0.00       0.00    
   5   0.674       0.00       0.00       0.00       0.00       0.00       0.00       0.00       0.00       0.00       0.00    
   6   0.674       0.00       0.00       0.00       0.00       0.00       0.00       0.00       0.00       0.00       0.00    
   7   0.674       0.00       0.00       0.00       0.00       0.00       0.00       0.00       0.00       0.00       0.00    
   8   0.674       0.00       0.00       0.00       0.00       0.00       0.00       0.00       0.00       0.00       0.00    
   9   0.674       0.00       0.00       0.00       0.00       0.00       0.00       0.00       0.00       0.00       0.00    
  10   0.674       0.00       0.00       0.00       0.00       0.00       0.00       0.00       0.00       0.00       0.00    
  11   0.674       0.00       0.00       0.00       0.00       0.00       0.00       0.00       0.00       0.00       0.00    
 
 SOLVING FOR HEAD 
 INITIAL HNEW IS AN EXACT SOLUTION.

 OUTPUT CONTROL FOR STRESS PERIOD   17   TIME STEP    1
    SAVE BUDGET

 -------------------------------------------------------------------------------
                             SWR1 OUTPUT PRINT TIMES
                        STRESS PERIOD   17   TIME STEP     1
 --------------- --------------- --------------- --------------- ---------------
      57720.                                                                    
 -------------------------------------------------------------------------------
 
 SOLVING FOR HEAD 
 INITIAL HNEW IS AN EXACT SOLUTION.

 NO OUTPUT CONTROL FOR STRESS PERIOD   17   TIME STEP    2

 -------------------------------------------------------------------------------
                             SWR1 OUTPUT PRINT TIMES
                        STRESS PERIOD   17   TIME STEP     2
 --------------- --------------- --------------- --------------- ---------------
      57840.                                                                    
 -------------------------------------------------------------------------------
 
 SOLVING FOR HEAD 
 INITIAL HNEW IS AN EXACT SOLUTION.

 NO OUTPUT CONTROL FOR STRESS PERIOD   17   TIME STEP    3

 -------------------------------------------------------------------------------
                             SWR1 OUTPUT PRINT TIMES
                        STRESS PERIOD   17   TIME STEP     3
 --------------- --------------- --------------- --------------- ---------------
      57960.                                                                    
 -------------------------------------------------------------------------------
 
 SOLVING FOR HEAD 
 INITIAL HNEW IS AN EXACT SOLUTION.

 NO OUTPUT CONTROL FOR STRESS PERIOD   17   TIME STEP    4

 -------------------------------------------------------------------------------
                             SWR1 OUTPUT PRINT TIMES
                        STRESS PERIOD   17   TIME STEP     4
 --------------- --------------- --------------- --------------- ---------------
      58080.                                                                    
 -------------------------------------------------------------------------------
 
 SOLVING FOR HEAD 
 INITIAL HNEW IS AN EXACT SOLUTION.

 NO OUTPUT CONTROL FOR STRESS PERIOD   17   TIME STEP    5

 -------------------------------------------------------------------------------
                             SWR1 OUTPUT PRINT TIMES
                        STRESS PERIOD   17   TIME STEP     5
 --------------- --------------- --------------- --------------- ---------------
      58200.                                                                    
 -------------------------------------------------------------------------------
 
 SOLVING FOR HEAD 
 INITIAL HNEW IS AN EXACT SOLUTION.

 NO OUTPUT CONTROL FOR STRESS PERIOD   17   TIME STEP    6

 -------------------------------------------------------------------------------
                             SWR1 OUTPUT PRINT TIMES
                        STRESS PERIOD   17   TIME STEP     6
 --------------- --------------- --------------- --------------- ---------------
      58320.                                                                    
 -------------------------------------------------------------------------------
 
 SOLVING FOR HEAD 
 INITIAL HNEW IS AN EXACT SOLUTION.

 NO OUTPUT CONTROL FOR STRESS PERIOD   17   TIME STEP    7

 -------------------------------------------------------------------------------
                             SWR1 OUTPUT PRINT TIMES
                        STRESS PERIOD   17   TIME STEP     7
 --------------- --------------- --------------- --------------- ---------------
      58440.                                                                    
 -------------------------------------------------------------------------------
 
 SOLVING FOR HEAD 
 INITIAL HNEW IS AN EXACT SOLUTION.

 NO OUTPUT CONTROL FOR STRESS PERIOD   17   TIME STEP    8

 -------------------------------------------------------------------------------
                             SWR1 OUTPUT PRINT TIMES
                        STRESS PERIOD   17   TIME STEP     8
 --------------- --------------- --------------- --------------- ---------------
      58560.                                                                    
 -------------------------------------------------------------------------------
 
 SOLVING FOR HEAD 
 INITIAL HNEW IS AN EXACT SOLUTION.

 NO OUTPUT CONTROL FOR STRESS PERIOD   17   TIME STEP    9

 -------------------------------------------------------------------------------
                             SWR1 OUTPUT PRINT TIMES
                        STRESS PERIOD   17   TIME STEP     9
 --------------- --------------- --------------- --------------- ---------------
      58680.                                                                    
 -------------------------------------------------------------------------------
 
 SOLVING FOR HEAD 
 INITIAL HNEW IS AN EXACT SOLUTION.

 NO OUTPUT CONTROL FOR STRESS PERIOD   17   TIME STEP   10

 -------------------------------------------------------------------------------
                             SWR1 OUTPUT PRINT TIMES
                        STRESS PERIOD   17   TIME STEP    10
 --------------- --------------- --------------- --------------- ---------------
      58800.                                                                    
 -------------------------------------------------------------------------------
 
 SOLVING FOR HEAD 
 INITIAL HNEW IS AN EXACT SOLUTION.

 NO OUTPUT CONTROL FOR STRESS PERIOD   17   TIME STEP   11

 -------------------------------------------------------------------------------
                             SWR1 OUTPUT PRINT TIMES
                        STRESS PERIOD   17   TIME STEP    11
 --------------- --------------- --------------- --------------- ---------------
      58920.                                                                    
 -------------------------------------------------------------------------------
 
 SOLVING FOR HEAD 
 INITIAL HNEW IS AN EXACT SOLUTION.

 NO OUTPUT CONTROL FOR STRESS PERIOD   17   TIME STEP   12

 -------------------------------------------------------------------------------
                             SWR1 OUTPUT PRINT TIMES
                        STRESS PERIOD   17   TIME STEP    12
 --------------- --------------- --------------- --------------- ---------------
      59040.                                                                    
 -------------------------------------------------------------------------------
 
 SOLVING FOR HEAD 
 INITIAL HNEW IS AN EXACT SOLUTION.

 NO OUTPUT CONTROL FOR STRESS PERIOD   17   TIME STEP   13

 -------------------------------------------------------------------------------
                             SWR1 OUTPUT PRINT TIMES
                        STRESS PERIOD   17   TIME STEP    13
 --------------- --------------- --------------- --------------- ---------------
      59160.                                                                    
 -------------------------------------------------------------------------------
 
 SOLVING FOR HEAD 
 INITIAL HNEW IS AN EXACT SOLUTION.

 NO OUTPUT CONTROL FOR STRESS PERIOD   17   TIME STEP   14

 -------------------------------------------------------------------------------
                             SWR1 OUTPUT PRINT TIMES
                        STRESS PERIOD   17   TIME STEP    14
 --------------- --------------- --------------- --------------- ---------------
      59280.                                                                    
 -------------------------------------------------------------------------------
 
 SOLVING FOR HEAD 
 INITIAL HNEW IS AN EXACT SOLUTION.

 NO OUTPUT CONTROL FOR STRESS PERIOD   17   TIME STEP   15

 -------------------------------------------------------------------------------
                             SWR1 OUTPUT PRINT TIMES
                        STRESS PERIOD   17   TIME STEP    15
 --------------- --------------- --------------- --------------- ---------------
      59400.                                                                    
 -------------------------------------------------------------------------------
 
 SOLVING FOR HEAD 
 INITIAL HNEW IS AN EXACT SOLUTION.

 NO OUTPUT CONTROL FOR STRESS PERIOD   17   TIME STEP   16

 -------------------------------------------------------------------------------
                             SWR1 OUTPUT PRINT TIMES
                        STRESS PERIOD   17   TIME STEP    16
 --------------- --------------- --------------- --------------- ---------------
      59520.                                                                    
 -------------------------------------------------------------------------------
 
 SOLVING FOR HEAD 
 INITIAL HNEW IS AN EXACT SOLUTION.

 NO OUTPUT CONTROL FOR STRESS PERIOD   17   TIME STEP   17

 -------------------------------------------------------------------------------
                             SWR1 OUTPUT PRINT TIMES
                        STRESS PERIOD   17   TIME STEP    17
 --------------- --------------- --------------- --------------- ---------------
      59640.                                                                    
 -------------------------------------------------------------------------------
 
 SOLVING FOR HEAD 
 INITIAL HNEW IS AN EXACT SOLUTION.

 NO OUTPUT CONTROL FOR STRESS PERIOD   17   TIME STEP   18

 -------------------------------------------------------------------------------
                             SWR1 OUTPUT PRINT TIMES
                        STRESS PERIOD   17   TIME STEP    18
 --------------- --------------- --------------- --------------- ---------------
      59760.                                                                    
 -------------------------------------------------------------------------------
 
 SOLVING FOR HEAD 
 INITIAL HNEW IS AN EXACT SOLUTION.

 NO OUTPUT CONTROL FOR STRESS PERIOD   17   TIME STEP   19

 -------------------------------------------------------------------------------
                             SWR1 OUTPUT PRINT TIMES
                        STRESS PERIOD   17   TIME STEP    19
 --------------- --------------- --------------- --------------- ---------------
      59880.                                                                    
 -------------------------------------------------------------------------------
 
 SOLVING FOR HEAD 
 INITIAL HNEW IS AN EXACT SOLUTION.

 NO OUTPUT CONTROL FOR STRESS PERIOD   17   TIME STEP   20

 -------------------------------------------------------------------------------
                             SWR1 OUTPUT PRINT TIMES
                        STRESS PERIOD   17   TIME STEP    20
 --------------- --------------- --------------- --------------- ---------------
      60000.                                                                    
 -------------------------------------------------------------------------------
 
 SOLVING FOR HEAD 
 INITIAL HNEW IS AN EXACT SOLUTION.

 NO OUTPUT CONTROL FOR STRESS PERIOD   17   TIME STEP   21

 -------------------------------------------------------------------------------
                             SWR1 OUTPUT PRINT TIMES
                        STRESS PERIOD   17   TIME STEP    21
 --------------- --------------- --------------- --------------- ---------------
      60120.                                                                    
 -------------------------------------------------------------------------------
 
 SOLVING FOR HEAD 
 INITIAL HNEW IS AN EXACT SOLUTION.

 NO OUTPUT CONTROL FOR STRESS PERIOD   17   TIME STEP   22

 -------------------------------------------------------------------------------
                             SWR1 OUTPUT PRINT TIMES
                        STRESS PERIOD   17   TIME STEP    22
 --------------- --------------- --------------- --------------- ---------------
      60240.                                                                    
 -------------------------------------------------------------------------------
 
 SOLVING FOR HEAD 
 INITIAL HNEW IS AN EXACT SOLUTION.

 NO OUTPUT CONTROL FOR STRESS PERIOD   17   TIME STEP   23

 -------------------------------------------------------------------------------
                             SWR1 OUTPUT PRINT TIMES
                        STRESS PERIOD   17   TIME STEP    23
 --------------- --------------- --------------- --------------- ---------------
      60360.                                                                    
 -------------------------------------------------------------------------------
 
 SOLVING FOR HEAD 
 INITIAL HNEW IS AN EXACT SOLUTION.

 NO OUTPUT CONTROL FOR STRESS PERIOD   17   TIME STEP   24

 -------------------------------------------------------------------------------
                             SWR1 OUTPUT PRINT TIMES
                        STRESS PERIOD   17   TIME STEP    24
 --------------- --------------- --------------- --------------- ---------------
      60480.                                                                    
 -------------------------------------------------------------------------------
 
 SOLVING FOR HEAD 
 INITIAL HNEW IS AN EXACT SOLUTION.

 NO OUTPUT CONTROL FOR STRESS PERIOD   17   TIME STEP   25

 -------------------------------------------------------------------------------
                             SWR1 OUTPUT PRINT TIMES
                        STRESS PERIOD   17   TIME STEP    25
 --------------- --------------- --------------- --------------- ---------------
      60600.                                                                    
 -------------------------------------------------------------------------------
 
 SOLVING FOR HEAD 
 INITIAL HNEW IS AN EXACT SOLUTION.

 NO OUTPUT CONTROL FOR STRESS PERIOD   17   TIME STEP   26

 -------------------------------------------------------------------------------
                             SWR1 OUTPUT PRINT TIMES
                        STRESS PERIOD   17   TIME STEP    26
 --------------- --------------- --------------- --------------- ---------------
      60720.                                                                    
 -------------------------------------------------------------------------------
 
 SOLVING FOR HEAD 
 INITIAL HNEW IS AN EXACT SOLUTION.

 NO OUTPUT CONTROL FOR STRESS PERIOD   17   TIME STEP   27

 -------------------------------------------------------------------------------
                             SWR1 OUTPUT PRINT TIMES
                        STRESS PERIOD   17   TIME STEP    27
 --------------- --------------- --------------- --------------- ---------------
      60840.                                                                    
 -------------------------------------------------------------------------------
 
 SOLVING FOR HEAD 
 INITIAL HNEW IS AN EXACT SOLUTION.

 NO OUTPUT CONTROL FOR STRESS PERIOD   17   TIME STEP   28

 -------------------------------------------------------------------------------
                             SWR1 OUTPUT PRINT TIMES
                        STRESS PERIOD   17   TIME STEP    28
 --------------- --------------- --------------- --------------- ---------------
      60960.                                                                    
 -------------------------------------------------------------------------------
 
 SOLVING FOR HEAD 
 INITIAL HNEW IS AN EXACT SOLUTION.

 NO OUTPUT CONTROL FOR STRESS PERIOD   17   TIME STEP   29

 -------------------------------------------------------------------------------
                             SWR1 OUTPUT PRINT TIMES
                        STRESS PERIOD   17   TIME STEP    29
 --------------- --------------- --------------- --------------- ---------------
      61080.                                                                    
 -------------------------------------------------------------------------------
 
 SOLVING FOR HEAD 
 INITIAL HNEW IS AN EXACT SOLUTION.

 NO OUTPUT CONTROL FOR STRESS PERIOD   17   TIME STEP   30

 -------------------------------------------------------------------------------
                             SWR1 OUTPUT PRINT TIMES
                        STRESS PERIOD   17   TIME STEP    30
 --------------- --------------- --------------- --------------- ---------------
      61200.                                                                    
 -------------------------------------------------------------------------------


                    VOLUMETRIC SURFACE WATER BUDGET FOR ENTIRE MODEL
                    AT END OF TIME STEP    30 IN STRESS PERIOD   17
  -----------------------------------------------------------------------------------

        CUMULATIVE VOLUMES      L**3       RATES FOR THIS TIME STEP      L**3/T
        ------------------                 ------------------------

              IN:                                      IN:
              ---                                      ---
          LATERAL FLOW  =      670165.9375         LATERAL FLOW  =           7.4165
         UNSAT. RUNOFF  =           0.0000        UNSAT. RUNOFF  =           0.0000
              RAINFALL  =      974787.4375             RAINFALL  =          10.7876
           EVAPORATION  =           0.0000          EVAPORATION  =           0.0000
         REACH-AQ FLOW  =           0.0000        REACH-AQ FLOW  =           0.0000
         EXTERNAL FLOW  =           0.0000        EXTERNAL FLOW  =           0.0000
         BOUNDARY FLOW  =           0.0000        BOUNDARY FLOW  =           0.0000
         CONSTANT FLOW  =           0.0000        CONSTANT FLOW  =           0.0000
               STORAGE  =       78040.6094              STORAGE  =          14.2581

               TOTAL IN =     1722994.0000              TOTAL IN =          32.4622

             OUT:                                     OUT:
             ----                                     ----
          LATERAL FLOW  =           0.0000         LATERAL FLOW  =           0.0000
         UNSAT. RUNOFF  =           0.0000        UNSAT. RUNOFF  =           0.0000
              RAINFALL  =           0.0000             RAINFALL  =           0.0000
           EVAPORATION  =           0.0000          EVAPORATION  =           0.0000
         REACH-AQ FLOW  =           0.0000        REACH-AQ FLOW  =           0.0000
         EXTERNAL FLOW  =           0.0000        EXTERNAL FLOW  =           0.0000
         BOUNDARY FLOW  =           0.0000        BOUNDARY FLOW  =           0.0000
         CONSTANT FLOW  =       36895.8789        CONSTANT FLOW  =           0.6707
               STORAGE  =     1686102.5000              STORAGE  =          31.7921

              TOTAL OUT =     1722998.3750             TOTAL OUT =          32.4627

               IN - OUT =          -4.3750              IN - OUT =      -5.1880E-04

    PERCENT DISCREPANCY =           0.00     PERCENT DISCREPANCY =           0.00

1
  VOLUMETRIC BUDGET FOR ENTIRE MODEL AT END OF TIME STEP   30, STRESS PERIOD  17
  ------------------------------------------------------------------------------

     CUMULATIVE VOLUMES      L**3       RATES FOR THIS TIME STEP      L**3/T
     ------------------                 ------------------------

           IN:                                      IN:
           ---                                      ---
             STORAGE =           0.0000               STORAGE =           0.0000
       CONSTANT HEAD =           0.0000         CONSTANT HEAD =           0.0000
         SWR LEAKAGE =           0.0000           SWR LEAKAGE =           0.0000
            SWR GWET =           0.0000              SWR GWET =           0.0000

            TOTAL IN =           0.0000              TOTAL IN =           0.0000

          OUT:                                     OUT:
          ----                                     ----
             STORAGE =           0.0000               STORAGE =           0.0000
       CONSTANT HEAD =           0.0000         CONSTANT HEAD =           0.0000
         SWR LEAKAGE =           0.0000           SWR LEAKAGE =           0.0000
            SWR GWET =           0.0000              SWR GWET =           0.0000

           TOTAL OUT =           0.0000             TOTAL OUT =           0.0000

            IN - OUT =           0.0000              IN - OUT =           0.0000

 PERCENT DISCREPANCY =           0.00     PERCENT DISCREPANCY =           0.00






         TIME SUMMARY AT END OF TIME STEP   30 IN STRESS PERIOD   17
                    SECONDS     MINUTES      HOURS       DAYS        YEARS
                    -----------------------------------------------------------
   TIME STEP LENGTH  120.00      2.0000     3.33333E-02 1.38889E-03 3.80257E-06
 STRESS PERIOD TIME  3600.0      60.000      1.0000     4.16667E-02 1.14077E-04
         TOTAL TIME  61200.      1020.0      17.000     0.70833     1.93931E-03
1
1
                            STRESS PERIOD NO.   18, LENGTH =   3600.000    
                            -----------------------------------------------

                              NUMBER OF TIME STEPS =    30

                               MULTIPLIER FOR DELT =     1.000

                            INITIAL TIME STEP SIZE =   120.0000    

 ...READING SWR1 PROCESS DATASET 5

 ...READING SWR1 PROCESS DATASET 7B



                   2D RAINFALL DATA
 READING ON UNIT   61 WITH FORMAT: (11E12.4)           

           1          2          3          4          5          6          7          8          9         10         11
 .........................................................................................................................
   1    0.00       0.00       0.00       0.00       0.00       0.00       0.00       0.00       0.00       0.00       0.00    
   2    0.00       0.00       0.00       0.00       0.00       0.00       0.00       0.00       0.00       0.00       0.00    
   3    0.00       0.00       0.00       0.00       0.00       0.00       0.00       0.00       0.00       0.00       0.00    
   4    0.00       0.00       0.00       0.00      1.167E-06  1.167E-06  1.167E-06   0.00       0.00       0.00       0.00    
   5    0.00       0.00       0.00       0.00      1.167E-06  1.167E-06  1.167E-06   0.00       0.00       0.00       0.00    
   6    0.00       0.00       0.00      1.167E-06  1.167E-06  1.167E-06  1.167E-06   0.00       0.00       0.00       0.00    
   7    0.00       0.00       0.00       0.00      1.167E-06  1.167E-06  1.167E-06   0.00       0.00       0.00       0.00    
   8    0.00       0.00       0.00       0.00      1.167E-06  1.167E-06  1.167E-06   0.00       0.00       0.00       0.00    
   9    0.00       0.00       0.00       0.00       0.00       0.00       0.00       0.00       0.00       0.00       0.00    
  10    0.00       0.00       0.00       0.00       0.00       0.00       0.00       0.00       0.00       0.00       0.00    
  11    0.00       0.00       0.00       0.00       0.00       0.00       0.00       0.00       0.00       0.00       0.00    

 ...READING SWR1 PROCESS DATASET 9B



             2D LATERAL INFLOW DATA
 READING ON UNIT   61 WITH FORMAT: (11E12.4)           

           1          2          3          4          5          6          7          8          9         10         11
 .........................................................................................................................
   1   0.292       0.00       0.00       0.00       0.00       0.00       0.00       0.00       0.00       0.00       0.00    
   2   0.292       0.00       0.00       0.00       0.00       0.00       0.00       0.00       0.00       0.00       0.00    
   3   0.292       0.00       0.00       0.00       0.00       0.00       0.00       0.00       0.00       0.00       0.00    
   4   0.292       0.00       0.00       0.00       0.00       0.00       0.00       0.00       0.00       0.00       0.00    
   5   0.292       0.00       0.00       0.00       0.00       0.00       0.00       0.00       0.00       0.00       0.00    
   6   0.292       0.00       0.00       0.00       0.00       0.00       0.00       0.00       0.00       0.00       0.00    
   7   0.292       0.00       0.00       0.00       0.00       0.00       0.00       0.00       0.00       0.00       0.00    
   8   0.292       0.00       0.00       0.00       0.00       0.00       0.00       0.00       0.00       0.00       0.00    
   9   0.292       0.00       0.00       0.00       0.00       0.00       0.00       0.00       0.00       0.00       0.00    
  10   0.292       0.00       0.00       0.00       0.00       0.00       0.00       0.00       0.00       0.00       0.00    
  11   0.292       0.00       0.00       0.00       0.00       0.00       0.00       0.00       0.00       0.00       0.00    
 
 SOLVING FOR HEAD 
 INITIAL HNEW IS AN EXACT SOLUTION.

 OUTPUT CONTROL FOR STRESS PERIOD   18   TIME STEP    1
    SAVE BUDGET

 -------------------------------------------------------------------------------
                             SWR1 OUTPUT PRINT TIMES
                        STRESS PERIOD   18   TIME STEP     1
 --------------- --------------- --------------- --------------- ---------------
      61320.                                                                    
 -------------------------------------------------------------------------------
 
 SOLVING FOR HEAD 
 INITIAL HNEW IS AN EXACT SOLUTION.

 NO OUTPUT CONTROL FOR STRESS PERIOD   18   TIME STEP    2

 -------------------------------------------------------------------------------
                             SWR1 OUTPUT PRINT TIMES
                        STRESS PERIOD   18   TIME STEP     2
 --------------- --------------- --------------- --------------- ---------------
      61440.                                                                    
 -------------------------------------------------------------------------------
 
 SOLVING FOR HEAD 
 INITIAL HNEW IS AN EXACT SOLUTION.

 NO OUTPUT CONTROL FOR STRESS PERIOD   18   TIME STEP    3

 -------------------------------------------------------------------------------
                             SWR1 OUTPUT PRINT TIMES
                        STRESS PERIOD   18   TIME STEP     3
 --------------- --------------- --------------- --------------- ---------------
      61560.                                                                    
 -------------------------------------------------------------------------------
 
 SOLVING FOR HEAD 
 INITIAL HNEW IS AN EXACT SOLUTION.

 NO OUTPUT CONTROL FOR STRESS PERIOD   18   TIME STEP    4

 -------------------------------------------------------------------------------
                             SWR1 OUTPUT PRINT TIMES
                        STRESS PERIOD   18   TIME STEP     4
 --------------- --------------- --------------- --------------- ---------------
      61680.                                                                    
 -------------------------------------------------------------------------------
 
 SOLVING FOR HEAD 
 INITIAL HNEW IS AN EXACT SOLUTION.

 NO OUTPUT CONTROL FOR STRESS PERIOD   18   TIME STEP    5

 -------------------------------------------------------------------------------
                             SWR1 OUTPUT PRINT TIMES
                        STRESS PERIOD   18   TIME STEP     5
 --------------- --------------- --------------- --------------- ---------------
      61800.                                                                    
 -------------------------------------------------------------------------------
 
 SOLVING FOR HEAD 
 INITIAL HNEW IS AN EXACT SOLUTION.

 NO OUTPUT CONTROL FOR STRESS PERIOD   18   TIME STEP    6

 -------------------------------------------------------------------------------
                             SWR1 OUTPUT PRINT TIMES
                        STRESS PERIOD   18   TIME STEP     6
 --------------- --------------- --------------- --------------- ---------------
      61920.                                                                    
 -------------------------------------------------------------------------------
 
 SOLVING FOR HEAD 
 INITIAL HNEW IS AN EXACT SOLUTION.

 NO OUTPUT CONTROL FOR STRESS PERIOD   18   TIME STEP    7

 -------------------------------------------------------------------------------
                             SWR1 OUTPUT PRINT TIMES
                        STRESS PERIOD   18   TIME STEP     7
 --------------- --------------- --------------- --------------- ---------------
      62040.                                                                    
 -------------------------------------------------------------------------------
 
 SOLVING FOR HEAD 
 INITIAL HNEW IS AN EXACT SOLUTION.

 NO OUTPUT CONTROL FOR STRESS PERIOD   18   TIME STEP    8

 -------------------------------------------------------------------------------
                             SWR1 OUTPUT PRINT TIMES
                        STRESS PERIOD   18   TIME STEP     8
 --------------- --------------- --------------- --------------- ---------------
      62160.                                                                    
 -------------------------------------------------------------------------------
 
 SOLVING FOR HEAD 
 INITIAL HNEW IS AN EXACT SOLUTION.

 NO OUTPUT CONTROL FOR STRESS PERIOD   18   TIME STEP    9

 -------------------------------------------------------------------------------
                             SWR1 OUTPUT PRINT TIMES
                        STRESS PERIOD   18   TIME STEP     9
 --------------- --------------- --------------- --------------- ---------------
      62280.                                                                    
 -------------------------------------------------------------------------------
 
 SOLVING FOR HEAD 
 INITIAL HNEW IS AN EXACT SOLUTION.

 NO OUTPUT CONTROL FOR STRESS PERIOD   18   TIME STEP   10

 -------------------------------------------------------------------------------
                             SWR1 OUTPUT PRINT TIMES
                        STRESS PERIOD   18   TIME STEP    10
 --------------- --------------- --------------- --------------- ---------------
      62400.                                                                    
 -------------------------------------------------------------------------------
 
 SOLVING FOR HEAD 
 INITIAL HNEW IS AN EXACT SOLUTION.

 NO OUTPUT CONTROL FOR STRESS PERIOD   18   TIME STEP   11

 -------------------------------------------------------------------------------
                             SWR1 OUTPUT PRINT TIMES
                        STRESS PERIOD   18   TIME STEP    11
 --------------- --------------- --------------- --------------- ---------------
      62520.                                                                    
 -------------------------------------------------------------------------------
 
 SOLVING FOR HEAD 
 INITIAL HNEW IS AN EXACT SOLUTION.

 NO OUTPUT CONTROL FOR STRESS PERIOD   18   TIME STEP   12

 -------------------------------------------------------------------------------
                             SWR1 OUTPUT PRINT TIMES
                        STRESS PERIOD   18   TIME STEP    12
 --------------- --------------- --------------- --------------- ---------------
      62640.                                                                    
 -------------------------------------------------------------------------------
 
 SOLVING FOR HEAD 
 INITIAL HNEW IS AN EXACT SOLUTION.

 NO OUTPUT CONTROL FOR STRESS PERIOD   18   TIME STEP   13

 -------------------------------------------------------------------------------
                             SWR1 OUTPUT PRINT TIMES
                        STRESS PERIOD   18   TIME STEP    13
 --------------- --------------- --------------- --------------- ---------------
      62760.                                                                    
 -------------------------------------------------------------------------------
 
 SOLVING FOR HEAD 
 INITIAL HNEW IS AN EXACT SOLUTION.

 NO OUTPUT CONTROL FOR STRESS PERIOD   18   TIME STEP   14

 -------------------------------------------------------------------------------
                             SWR1 OUTPUT PRINT TIMES
                        STRESS PERIOD   18   TIME STEP    14
 --------------- --------------- --------------- --------------- ---------------
      62880.                                                                    
 -------------------------------------------------------------------------------
 
 SOLVING FOR HEAD 
 INITIAL HNEW IS AN EXACT SOLUTION.

 NO OUTPUT CONTROL FOR STRESS PERIOD   18   TIME STEP   15

 -------------------------------------------------------------------------------
                             SWR1 OUTPUT PRINT TIMES
                        STRESS PERIOD   18   TIME STEP    15
 --------------- --------------- --------------- --------------- ---------------
      63000.                                                                    
 -------------------------------------------------------------------------------
 
 SOLVING FOR HEAD 
 INITIAL HNEW IS AN EXACT SOLUTION.

 NO OUTPUT CONTROL FOR STRESS PERIOD   18   TIME STEP   16

 -------------------------------------------------------------------------------
                             SWR1 OUTPUT PRINT TIMES
                        STRESS PERIOD   18   TIME STEP    16
 --------------- --------------- --------------- --------------- ---------------
      63120.                                                                    
 -------------------------------------------------------------------------------
 
 SOLVING FOR HEAD 
 INITIAL HNEW IS AN EXACT SOLUTION.

 NO OUTPUT CONTROL FOR STRESS PERIOD   18   TIME STEP   17

 -------------------------------------------------------------------------------
                             SWR1 OUTPUT PRINT TIMES
                        STRESS PERIOD   18   TIME STEP    17
 --------------- --------------- --------------- --------------- ---------------
      63240.                                                                    
 -------------------------------------------------------------------------------
 
 SOLVING FOR HEAD 
 INITIAL HNEW IS AN EXACT SOLUTION.

 NO OUTPUT CONTROL FOR STRESS PERIOD   18   TIME STEP   18

 -------------------------------------------------------------------------------
                             SWR1 OUTPUT PRINT TIMES
                        STRESS PERIOD   18   TIME STEP    18
 --------------- --------------- --------------- --------------- ---------------
      63360.                                                                    
 -------------------------------------------------------------------------------
 
 SOLVING FOR HEAD 
 INITIAL HNEW IS AN EXACT SOLUTION.

 NO OUTPUT CONTROL FOR STRESS PERIOD   18   TIME STEP   19

 -------------------------------------------------------------------------------
                             SWR1 OUTPUT PRINT TIMES
                        STRESS PERIOD   18   TIME STEP    19
 --------------- --------------- --------------- --------------- ---------------
      63480.                                                                    
 -------------------------------------------------------------------------------
 
 SOLVING FOR HEAD 
 INITIAL HNEW IS AN EXACT SOLUTION.

 NO OUTPUT CONTROL FOR STRESS PERIOD   18   TIME STEP   20

 -------------------------------------------------------------------------------
                             SWR1 OUTPUT PRINT TIMES
                        STRESS PERIOD   18   TIME STEP    20
 --------------- --------------- --------------- --------------- ---------------
      63600.                                                                    
 -------------------------------------------------------------------------------
 
 SOLVING FOR HEAD 
 INITIAL HNEW IS AN EXACT SOLUTION.

 NO OUTPUT CONTROL FOR STRESS PERIOD   18   TIME STEP   21

 -------------------------------------------------------------------------------
                             SWR1 OUTPUT PRINT TIMES
                        STRESS PERIOD   18   TIME STEP    21
 --------------- --------------- --------------- --------------- ---------------
      63720.                                                                    
 -------------------------------------------------------------------------------
 
 SOLVING FOR HEAD 
 INITIAL HNEW IS AN EXACT SOLUTION.

 NO OUTPUT CONTROL FOR STRESS PERIOD   18   TIME STEP   22

 -------------------------------------------------------------------------------
                             SWR1 OUTPUT PRINT TIMES
                        STRESS PERIOD   18   TIME STEP    22
 --------------- --------------- --------------- --------------- ---------------
      63840.                                                                    
 -------------------------------------------------------------------------------
 
 SOLVING FOR HEAD 
 INITIAL HNEW IS AN EXACT SOLUTION.

 NO OUTPUT CONTROL FOR STRESS PERIOD   18   TIME STEP   23

 -------------------------------------------------------------------------------
                             SWR1 OUTPUT PRINT TIMES
                        STRESS PERIOD   18   TIME STEP    23
 --------------- --------------- --------------- --------------- ---------------
      63960.                                                                    
 -------------------------------------------------------------------------------
 
 SOLVING FOR HEAD 
 INITIAL HNEW IS AN EXACT SOLUTION.

 NO OUTPUT CONTROL FOR STRESS PERIOD   18   TIME STEP   24

 -------------------------------------------------------------------------------
                             SWR1 OUTPUT PRINT TIMES
                        STRESS PERIOD   18   TIME STEP    24
 --------------- --------------- --------------- --------------- ---------------
      64080.                                                                    
 -------------------------------------------------------------------------------
 
 SOLVING FOR HEAD 
 INITIAL HNEW IS AN EXACT SOLUTION.

 NO OUTPUT CONTROL FOR STRESS PERIOD   18   TIME STEP   25

 -------------------------------------------------------------------------------
                             SWR1 OUTPUT PRINT TIMES
                        STRESS PERIOD   18   TIME STEP    25
 --------------- --------------- --------------- --------------- ---------------
      64200.                                                                    
 -------------------------------------------------------------------------------
 
 SOLVING FOR HEAD 
 INITIAL HNEW IS AN EXACT SOLUTION.

 NO OUTPUT CONTROL FOR STRESS PERIOD   18   TIME STEP   26

 -------------------------------------------------------------------------------
                             SWR1 OUTPUT PRINT TIMES
                        STRESS PERIOD   18   TIME STEP    26
 --------------- --------------- --------------- --------------- ---------------
      64320.                                                                    
 -------------------------------------------------------------------------------
 
 SOLVING FOR HEAD 
 INITIAL HNEW IS AN EXACT SOLUTION.

 NO OUTPUT CONTROL FOR STRESS PERIOD   18   TIME STEP   27

 -------------------------------------------------------------------------------
                             SWR1 OUTPUT PRINT TIMES
                        STRESS PERIOD   18   TIME STEP    27
 --------------- --------------- --------------- --------------- ---------------
      64440.                                                                    
 -------------------------------------------------------------------------------
 
 SOLVING FOR HEAD 
 INITIAL HNEW IS AN EXACT SOLUTION.

 NO OUTPUT CONTROL FOR STRESS PERIOD   18   TIME STEP   28

 -------------------------------------------------------------------------------
                             SWR1 OUTPUT PRINT TIMES
                        STRESS PERIOD   18   TIME STEP    28
 --------------- --------------- --------------- --------------- ---------------
      64560.                                                                    
 -------------------------------------------------------------------------------
 
 SOLVING FOR HEAD 
 INITIAL HNEW IS AN EXACT SOLUTION.

 NO OUTPUT CONTROL FOR STRESS PERIOD   18   TIME STEP   29

 -------------------------------------------------------------------------------
                             SWR1 OUTPUT PRINT TIMES
                        STRESS PERIOD   18   TIME STEP    29
 --------------- --------------- --------------- --------------- ---------------
      64680.                                                                    
 -------------------------------------------------------------------------------
 
 SOLVING FOR HEAD 
 INITIAL HNEW IS AN EXACT SOLUTION.

 NO OUTPUT CONTROL FOR STRESS PERIOD   18   TIME STEP   30

 -------------------------------------------------------------------------------
                             SWR1 OUTPUT PRINT TIMES
                        STRESS PERIOD   18   TIME STEP    30
 --------------- --------------- --------------- --------------- ---------------
      64800.                                                                    
 -------------------------------------------------------------------------------


                    VOLUMETRIC SURFACE WATER BUDGET FOR ENTIRE MODEL
                    AT END OF TIME STEP    30 IN STRESS PERIOD   18
  -----------------------------------------------------------------------------------

        CUMULATIVE VOLUMES      L**3       RATES FOR THIS TIME STEP      L**3/T
        ------------------                 ------------------------

              IN:                                      IN:
              ---                                      ---
          LATERAL FLOW  =      681721.5625         LATERAL FLOW  =           3.2098
         UNSAT. RUNOFF  =           0.0000        UNSAT. RUNOFF  =           0.0000
              RAINFALL  =      991594.9375             RAINFALL  =           4.6688
           EVAPORATION  =           0.0000          EVAPORATION  =           0.0000
         REACH-AQ FLOW  =           0.0000        REACH-AQ FLOW  =           0.0000
         EXTERNAL FLOW  =           0.0000        EXTERNAL FLOW  =           0.0000
         BOUNDARY FLOW  =           0.0000        BOUNDARY FLOW  =           0.0000
         CONSTANT FLOW  =           0.0000        CONSTANT FLOW  =           0.0000
               STORAGE  =      159378.0312              STORAGE  =          20.8439

               TOTAL IN =     1832694.5000              TOTAL IN =          28.7225

             OUT:                                     OUT:
             ----                                     ----
          LATERAL FLOW  =           0.0000         LATERAL FLOW  =           0.0000
         UNSAT. RUNOFF  =           0.0000        UNSAT. RUNOFF  =           0.0000
              RAINFALL  =           0.0000             RAINFALL  =           0.0000
           EVAPORATION  =           0.0000          EVAPORATION  =           0.0000
         REACH-AQ FLOW  =           0.0000        REACH-AQ FLOW  =           0.0000
         EXTERNAL FLOW  =           0.0000        EXTERNAL FLOW  =           0.0000
         BOUNDARY FLOW  =           0.0000        BOUNDARY FLOW  =           0.0000
         CONSTANT FLOW  =       39416.6992        CONSTANT FLOW  =           0.7328
               STORAGE  =     1793284.2500              STORAGE  =          27.9901

              TOTAL OUT =     1832701.0000             TOTAL OUT =          28.7229

               IN - OUT =          -6.5000              IN - OUT =      -4.2152E-04

    PERCENT DISCREPANCY =           0.00     PERCENT DISCREPANCY =           0.00

1
  VOLUMETRIC BUDGET FOR ENTIRE MODEL AT END OF TIME STEP   30, STRESS PERIOD  18
  ------------------------------------------------------------------------------

     CUMULATIVE VOLUMES      L**3       RATES FOR THIS TIME STEP      L**3/T
     ------------------                 ------------------------

           IN:                                      IN:
           ---                                      ---
             STORAGE =           0.0000               STORAGE =           0.0000
       CONSTANT HEAD =           0.0000         CONSTANT HEAD =           0.0000
         SWR LEAKAGE =           0.0000           SWR LEAKAGE =           0.0000
            SWR GWET =           0.0000              SWR GWET =           0.0000

            TOTAL IN =           0.0000              TOTAL IN =           0.0000

          OUT:                                     OUT:
          ----                                     ----
             STORAGE =           0.0000               STORAGE =           0.0000
       CONSTANT HEAD =           0.0000         CONSTANT HEAD =           0.0000
         SWR LEAKAGE =           0.0000           SWR LEAKAGE =           0.0000
            SWR GWET =           0.0000              SWR GWET =           0.0000

           TOTAL OUT =           0.0000             TOTAL OUT =           0.0000

            IN - OUT =           0.0000              IN - OUT =           0.0000

 PERCENT DISCREPANCY =           0.00     PERCENT DISCREPANCY =           0.00






         TIME SUMMARY AT END OF TIME STEP   30 IN STRESS PERIOD   18
                    SECONDS     MINUTES      HOURS       DAYS        YEARS
                    -----------------------------------------------------------
   TIME STEP LENGTH  120.00      2.0000     3.33333E-02 1.38889E-03 3.80257E-06
 STRESS PERIOD TIME  3600.0      60.000      1.0000     4.16667E-02 1.14077E-04
         TOTAL TIME  64800.      1080.0      18.000     0.75000     2.05339E-03
1
1
                            STRESS PERIOD NO.   19, LENGTH =   3600.000    
                            -----------------------------------------------

                              NUMBER OF TIME STEPS =    30

                               MULTIPLIER FOR DELT =     1.000

                            INITIAL TIME STEP SIZE =   120.0000    

 ...READING SWR1 PROCESS DATASET 5

 ...READING SWR1 PROCESS DATASET 7B



                   2D RAINFALL DATA
 READING ON UNIT   61 WITH FORMAT: (11E12.4)           

           1          2          3          4          5          6          7          8          9         10         11
 .........................................................................................................................
   1    0.00       0.00       0.00       0.00       0.00       0.00       0.00       0.00       0.00       0.00       0.00    
   2    0.00       0.00       0.00       0.00       0.00       0.00       0.00       0.00       0.00       0.00       0.00    
   3    0.00       0.00       0.00       0.00       0.00       0.00       0.00       0.00       0.00       0.00       0.00    
   4    0.00       0.00       0.00       0.00      4.193E-07  4.193E-07  4.193E-07   0.00       0.00       0.00       0.00    
   5    0.00       0.00       0.00       0.00      4.193E-07  4.193E-07  4.193E-07   0.00       0.00       0.00       0.00    
   6    0.00       0.00       0.00      4.193E-07  4.193E-07  4.193E-07  4.193E-07   0.00       0.00       0.00       0.00    
   7    0.00       0.00       0.00       0.00      4.193E-07  4.193E-07  4.193E-07   0.00       0.00       0.00       0.00    
   8    0.00       0.00       0.00       0.00      4.193E-07  4.193E-07  4.193E-07   0.00       0.00       0.00       0.00    
   9    0.00       0.00       0.00       0.00       0.00       0.00       0.00       0.00       0.00       0.00       0.00    
  10    0.00       0.00       0.00       0.00       0.00       0.00       0.00       0.00       0.00       0.00       0.00    
  11    0.00       0.00       0.00       0.00       0.00       0.00       0.00       0.00       0.00       0.00       0.00    

 ...READING SWR1 PROCESS DATASET 9B



             2D LATERAL INFLOW DATA
 READING ON UNIT   61 WITH FORMAT: (11E12.4)           

           1          2          3          4          5          6          7          8          9         10         11
 .........................................................................................................................
   1   0.105       0.00       0.00       0.00       0.00       0.00       0.00       0.00       0.00       0.00       0.00    
   2   0.105       0.00       0.00       0.00       0.00       0.00       0.00       0.00       0.00       0.00       0.00    
   3   0.105       0.00       0.00       0.00       0.00       0.00       0.00       0.00       0.00       0.00       0.00    
   4   0.105       0.00       0.00       0.00       0.00       0.00       0.00       0.00       0.00       0.00       0.00    
   5   0.105       0.00       0.00       0.00       0.00       0.00       0.00       0.00       0.00       0.00       0.00    
   6   0.105       0.00       0.00       0.00       0.00       0.00       0.00       0.00       0.00       0.00       0.00    
   7   0.105       0.00       0.00       0.00       0.00       0.00       0.00       0.00       0.00       0.00       0.00    
   8   0.105       0.00       0.00       0.00       0.00       0.00       0.00       0.00       0.00       0.00       0.00    
   9   0.105       0.00       0.00       0.00       0.00       0.00       0.00       0.00       0.00       0.00       0.00    
  10   0.105       0.00       0.00       0.00       0.00       0.00       0.00       0.00       0.00       0.00       0.00    
  11   0.105       0.00       0.00       0.00       0.00       0.00       0.00       0.00       0.00       0.00       0.00    
 
 SOLVING FOR HEAD 
 INITIAL HNEW IS AN EXACT SOLUTION.

 OUTPUT CONTROL FOR STRESS PERIOD   19   TIME STEP    1
    SAVE BUDGET

 -------------------------------------------------------------------------------
                             SWR1 OUTPUT PRINT TIMES
                        STRESS PERIOD   19   TIME STEP     1
 --------------- --------------- --------------- --------------- ---------------
      64920.                                                                    
 -------------------------------------------------------------------------------
 
 SOLVING FOR HEAD 
 INITIAL HNEW IS AN EXACT SOLUTION.

 NO OUTPUT CONTROL FOR STRESS PERIOD   19   TIME STEP    2

 -------------------------------------------------------------------------------
                             SWR1 OUTPUT PRINT TIMES
                        STRESS PERIOD   19   TIME STEP     2
 --------------- --------------- --------------- --------------- ---------------
      65040.                                                                    
 -------------------------------------------------------------------------------
 
 SOLVING FOR HEAD 
 INITIAL HNEW IS AN EXACT SOLUTION.

 NO OUTPUT CONTROL FOR STRESS PERIOD   19   TIME STEP    3

 -------------------------------------------------------------------------------
                             SWR1 OUTPUT PRINT TIMES
                        STRESS PERIOD   19   TIME STEP     3
 --------------- --------------- --------------- --------------- ---------------
      65160.                                                                    
 -------------------------------------------------------------------------------
 
 SOLVING FOR HEAD 
 INITIAL HNEW IS AN EXACT SOLUTION.

 NO OUTPUT CONTROL FOR STRESS PERIOD   19   TIME STEP    4

 -------------------------------------------------------------------------------
                             SWR1 OUTPUT PRINT TIMES
                        STRESS PERIOD   19   TIME STEP     4
 --------------- --------------- --------------- --------------- ---------------
      65280.                                                                    
 -------------------------------------------------------------------------------
 
 SOLVING FOR HEAD 
 INITIAL HNEW IS AN EXACT SOLUTION.

 NO OUTPUT CONTROL FOR STRESS PERIOD   19   TIME STEP    5

 -------------------------------------------------------------------------------
                             SWR1 OUTPUT PRINT TIMES
                        STRESS PERIOD   19   TIME STEP     5
 --------------- --------------- --------------- --------------- ---------------
      65400.                                                                    
 -------------------------------------------------------------------------------
 
 SOLVING FOR HEAD 
 INITIAL HNEW IS AN EXACT SOLUTION.

 NO OUTPUT CONTROL FOR STRESS PERIOD   19   TIME STEP    6

 -------------------------------------------------------------------------------
                             SWR1 OUTPUT PRINT TIMES
                        STRESS PERIOD   19   TIME STEP     6
 --------------- --------------- --------------- --------------- ---------------
      65520.                                                                    
 -------------------------------------------------------------------------------
 
 SOLVING FOR HEAD 
 INITIAL HNEW IS AN EXACT SOLUTION.

 NO OUTPUT CONTROL FOR STRESS PERIOD   19   TIME STEP    7

 -------------------------------------------------------------------------------
                             SWR1 OUTPUT PRINT TIMES
                        STRESS PERIOD   19   TIME STEP     7
 --------------- --------------- --------------- --------------- ---------------
      65640.                                                                    
 -------------------------------------------------------------------------------
 
 SOLVING FOR HEAD 
 INITIAL HNEW IS AN EXACT SOLUTION.

 NO OUTPUT CONTROL FOR STRESS PERIOD   19   TIME STEP    8

 -------------------------------------------------------------------------------
                             SWR1 OUTPUT PRINT TIMES
                        STRESS PERIOD   19   TIME STEP     8
 --------------- --------------- --------------- --------------- ---------------
      65760.                                                                    
 -------------------------------------------------------------------------------
 
 SOLVING FOR HEAD 
 INITIAL HNEW IS AN EXACT SOLUTION.

 NO OUTPUT CONTROL FOR STRESS PERIOD   19   TIME STEP    9

 -------------------------------------------------------------------------------
                             SWR1 OUTPUT PRINT TIMES
                        STRESS PERIOD   19   TIME STEP     9
 --------------- --------------- --------------- --------------- ---------------
      65880.                                                                    
 -------------------------------------------------------------------------------
 
 SOLVING FOR HEAD 
 INITIAL HNEW IS AN EXACT SOLUTION.

 NO OUTPUT CONTROL FOR STRESS PERIOD   19   TIME STEP   10

 -------------------------------------------------------------------------------
                             SWR1 OUTPUT PRINT TIMES
                        STRESS PERIOD   19   TIME STEP    10
 --------------- --------------- --------------- --------------- ---------------
      66000.                                                                    
 -------------------------------------------------------------------------------
 
 SOLVING FOR HEAD 
 INITIAL HNEW IS AN EXACT SOLUTION.

 NO OUTPUT CONTROL FOR STRESS PERIOD   19   TIME STEP   11

 -------------------------------------------------------------------------------
                             SWR1 OUTPUT PRINT TIMES
                        STRESS PERIOD   19   TIME STEP    11
 --------------- --------------- --------------- --------------- ---------------
      66120.                                                                    
 -------------------------------------------------------------------------------
 
 SOLVING FOR HEAD 
 INITIAL HNEW IS AN EXACT SOLUTION.

 NO OUTPUT CONTROL FOR STRESS PERIOD   19   TIME STEP   12

 -------------------------------------------------------------------------------
                             SWR1 OUTPUT PRINT TIMES
                        STRESS PERIOD   19   TIME STEP    12
 --------------- --------------- --------------- --------------- ---------------
      66240.                                                                    
 -------------------------------------------------------------------------------
 
 SOLVING FOR HEAD 
 INITIAL HNEW IS AN EXACT SOLUTION.

 NO OUTPUT CONTROL FOR STRESS PERIOD   19   TIME STEP   13

 -------------------------------------------------------------------------------
                             SWR1 OUTPUT PRINT TIMES
                        STRESS PERIOD   19   TIME STEP    13
 --------------- --------------- --------------- --------------- ---------------
      66360.                                                                    
 -------------------------------------------------------------------------------
 
 SOLVING FOR HEAD 
 INITIAL HNEW IS AN EXACT SOLUTION.

 NO OUTPUT CONTROL FOR STRESS PERIOD   19   TIME STEP   14

 -------------------------------------------------------------------------------
                             SWR1 OUTPUT PRINT TIMES
                        STRESS PERIOD   19   TIME STEP    14
 --------------- --------------- --------------- --------------- ---------------
      66480.                                                                    
 -------------------------------------------------------------------------------
 
 SOLVING FOR HEAD 
 INITIAL HNEW IS AN EXACT SOLUTION.

 NO OUTPUT CONTROL FOR STRESS PERIOD   19   TIME STEP   15

 -------------------------------------------------------------------------------
                             SWR1 OUTPUT PRINT TIMES
                        STRESS PERIOD   19   TIME STEP    15
 --------------- --------------- --------------- --------------- ---------------
      66600.                                                                    
 -------------------------------------------------------------------------------
 
 SOLVING FOR HEAD 
 INITIAL HNEW IS AN EXACT SOLUTION.

 NO OUTPUT CONTROL FOR STRESS PERIOD   19   TIME STEP   16

 -------------------------------------------------------------------------------
                             SWR1 OUTPUT PRINT TIMES
                        STRESS PERIOD   19   TIME STEP    16
 --------------- --------------- --------------- --------------- ---------------
      66720.                                                                    
 -------------------------------------------------------------------------------
 
 SOLVING FOR HEAD 
 INITIAL HNEW IS AN EXACT SOLUTION.

 NO OUTPUT CONTROL FOR STRESS PERIOD   19   TIME STEP   17

 -------------------------------------------------------------------------------
                             SWR1 OUTPUT PRINT TIMES
                        STRESS PERIOD   19   TIME STEP    17
 --------------- --------------- --------------- --------------- ---------------
      66840.                                                                    
 -------------------------------------------------------------------------------
 
 SOLVING FOR HEAD 
 INITIAL HNEW IS AN EXACT SOLUTION.

 NO OUTPUT CONTROL FOR STRESS PERIOD   19   TIME STEP   18

 -------------------------------------------------------------------------------
                             SWR1 OUTPUT PRINT TIMES
                        STRESS PERIOD   19   TIME STEP    18
 --------------- --------------- --------------- --------------- ---------------
      66960.                                                                    
 -------------------------------------------------------------------------------
 
 SOLVING FOR HEAD 
 INITIAL HNEW IS AN EXACT SOLUTION.

 NO OUTPUT CONTROL FOR STRESS PERIOD   19   TIME STEP   19

 -------------------------------------------------------------------------------
                             SWR1 OUTPUT PRINT TIMES
                        STRESS PERIOD   19   TIME STEP    19
 --------------- --------------- --------------- --------------- ---------------
      67080.                                                                    
 -------------------------------------------------------------------------------
 
 SOLVING FOR HEAD 
 INITIAL HNEW IS AN EXACT SOLUTION.

 NO OUTPUT CONTROL FOR STRESS PERIOD   19   TIME STEP   20

 -------------------------------------------------------------------------------
                             SWR1 OUTPUT PRINT TIMES
                        STRESS PERIOD   19   TIME STEP    20
 --------------- --------------- --------------- --------------- ---------------
      67200.                                                                    
 -------------------------------------------------------------------------------
 
 SOLVING FOR HEAD 
 INITIAL HNEW IS AN EXACT SOLUTION.

 NO OUTPUT CONTROL FOR STRESS PERIOD   19   TIME STEP   21

 -------------------------------------------------------------------------------
                             SWR1 OUTPUT PRINT TIMES
                        STRESS PERIOD   19   TIME STEP    21
 --------------- --------------- --------------- --------------- ---------------
      67320.                                                                    
 -------------------------------------------------------------------------------
 
 SOLVING FOR HEAD 
 INITIAL HNEW IS AN EXACT SOLUTION.

 NO OUTPUT CONTROL FOR STRESS PERIOD   19   TIME STEP   22

 -------------------------------------------------------------------------------
                             SWR1 OUTPUT PRINT TIMES
                        STRESS PERIOD   19   TIME STEP    22
 --------------- --------------- --------------- --------------- ---------------
      67440.                                                                    
 -------------------------------------------------------------------------------
 
 SOLVING FOR HEAD 
 INITIAL HNEW IS AN EXACT SOLUTION.

 NO OUTPUT CONTROL FOR STRESS PERIOD   19   TIME STEP   23

 -------------------------------------------------------------------------------
                             SWR1 OUTPUT PRINT TIMES
                        STRESS PERIOD   19   TIME STEP    23
 --------------- --------------- --------------- --------------- ---------------
      67560.                                                                    
 -------------------------------------------------------------------------------
 
 SOLVING FOR HEAD 
 INITIAL HNEW IS AN EXACT SOLUTION.

 NO OUTPUT CONTROL FOR STRESS PERIOD   19   TIME STEP   24

 -------------------------------------------------------------------------------
                             SWR1 OUTPUT PRINT TIMES
                        STRESS PERIOD   19   TIME STEP    24
 --------------- --------------- --------------- --------------- ---------------
      67680.                                                                    
 -------------------------------------------------------------------------------
 
 SOLVING FOR HEAD 
 INITIAL HNEW IS AN EXACT SOLUTION.

 NO OUTPUT CONTROL FOR STRESS PERIOD   19   TIME STEP   25

 -------------------------------------------------------------------------------
                             SWR1 OUTPUT PRINT TIMES
                        STRESS PERIOD   19   TIME STEP    25
 --------------- --------------- --------------- --------------- ---------------
      67800.                                                                    
 -------------------------------------------------------------------------------
 
 SOLVING FOR HEAD 
 INITIAL HNEW IS AN EXACT SOLUTION.

 NO OUTPUT CONTROL FOR STRESS PERIOD   19   TIME STEP   26

 -------------------------------------------------------------------------------
                             SWR1 OUTPUT PRINT TIMES
                        STRESS PERIOD   19   TIME STEP    26
 --------------- --------------- --------------- --------------- ---------------
      67920.                                                                    
 -------------------------------------------------------------------------------
 
 SOLVING FOR HEAD 
 INITIAL HNEW IS AN EXACT SOLUTION.

 NO OUTPUT CONTROL FOR STRESS PERIOD   19   TIME STEP   27

 -------------------------------------------------------------------------------
                             SWR1 OUTPUT PRINT TIMES
                        STRESS PERIOD   19   TIME STEP    27
 --------------- --------------- --------------- --------------- ---------------
      68040.                                                                    
 -------------------------------------------------------------------------------
 
 SOLVING FOR HEAD 
 INITIAL HNEW IS AN EXACT SOLUTION.

 NO OUTPUT CONTROL FOR STRESS PERIOD   19   TIME STEP   28

 -------------------------------------------------------------------------------
                             SWR1 OUTPUT PRINT TIMES
                        STRESS PERIOD   19   TIME STEP    28
 --------------- --------------- --------------- --------------- ---------------
      68160.                                                                    
 -------------------------------------------------------------------------------
 
 SOLVING FOR HEAD 
 INITIAL HNEW IS AN EXACT SOLUTION.

 NO OUTPUT CONTROL FOR STRESS PERIOD   19   TIME STEP   29

 -------------------------------------------------------------------------------
                             SWR1 OUTPUT PRINT TIMES
                        STRESS PERIOD   19   TIME STEP    29
 --------------- --------------- --------------- --------------- ---------------
      68280.                                                                    
 -------------------------------------------------------------------------------
 
 SOLVING FOR HEAD 
 INITIAL HNEW IS AN EXACT SOLUTION.

 NO OUTPUT CONTROL FOR STRESS PERIOD   19   TIME STEP   30

 -------------------------------------------------------------------------------
                             SWR1 OUTPUT PRINT TIMES
                        STRESS PERIOD   19   TIME STEP    30
 --------------- --------------- --------------- --------------- ---------------
      68400.                                                                    
 -------------------------------------------------------------------------------


                    VOLUMETRIC SURFACE WATER BUDGET FOR ENTIRE MODEL
                    AT END OF TIME STEP    30 IN STRESS PERIOD   19
  -----------------------------------------------------------------------------------

        CUMULATIVE VOLUMES      L**3       RATES FOR THIS TIME STEP      L**3/T
        ------------------                 ------------------------

              IN:                                      IN:
              ---                                      ---
          LATERAL FLOW  =      685872.8125         LATERAL FLOW  =           1.1531
         UNSAT. RUNOFF  =           0.0000        UNSAT. RUNOFF  =           0.0000
              RAINFALL  =      997632.4375             RAINFALL  =           1.6773
           EVAPORATION  =           0.0000          EVAPORATION  =           0.0000
         REACH-AQ FLOW  =           0.0000        REACH-AQ FLOW  =           0.0000
         EXTERNAL FLOW  =           0.0000        EXTERNAL FLOW  =           0.0000
         BOUNDARY FLOW  =           0.0000        BOUNDARY FLOW  =           0.0000
         CONSTANT FLOW  =           0.0000        CONSTANT FLOW  =           0.0000
               STORAGE  =      245341.3438              STORAGE  =          22.1410

               TOTAL IN =     1928846.6250              TOTAL IN =          24.9714

             OUT:                                     OUT:
             ----                                     ----
          LATERAL FLOW  =           0.0000         LATERAL FLOW  =           0.0000
         UNSAT. RUNOFF  =           0.0000        UNSAT. RUNOFF  =           0.0000
              RAINFALL  =           0.0000             RAINFALL  =           0.0000
           EVAPORATION  =           0.0000          EVAPORATION  =           0.0000
         REACH-AQ FLOW  =           0.0000        REACH-AQ FLOW  =           0.0000
         EXTERNAL FLOW  =           0.0000        EXTERNAL FLOW  =           0.0000
         BOUNDARY FLOW  =           0.0000        BOUNDARY FLOW  =           0.0000
         CONSTANT FLOW  =       42223.6406        CONSTANT FLOW  =           0.8300
               STORAGE  =     1886631.5000              STORAGE  =          24.1417

              TOTAL OUT =     1928855.1250             TOTAL OUT =          24.9717

               IN - OUT =          -8.5000              IN - OUT =      -2.8801E-04

    PERCENT DISCREPANCY =           0.00     PERCENT DISCREPANCY =           0.00

1
  VOLUMETRIC BUDGET FOR ENTIRE MODEL AT END OF TIME STEP   30, STRESS PERIOD  19
  ------------------------------------------------------------------------------

     CUMULATIVE VOLUMES      L**3       RATES FOR THIS TIME STEP      L**3/T
     ------------------                 ------------------------

           IN:                                      IN:
           ---                                      ---
             STORAGE =           0.0000               STORAGE =           0.0000
       CONSTANT HEAD =           0.0000         CONSTANT HEAD =           0.0000
         SWR LEAKAGE =           0.0000           SWR LEAKAGE =           0.0000
            SWR GWET =           0.0000              SWR GWET =           0.0000

            TOTAL IN =           0.0000              TOTAL IN =           0.0000

          OUT:                                     OUT:
          ----                                     ----
             STORAGE =           0.0000               STORAGE =           0.0000
       CONSTANT HEAD =           0.0000         CONSTANT HEAD =           0.0000
         SWR LEAKAGE =           0.0000           SWR LEAKAGE =           0.0000
            SWR GWET =           0.0000              SWR GWET =           0.0000

           TOTAL OUT =           0.0000             TOTAL OUT =           0.0000

            IN - OUT =           0.0000              IN - OUT =           0.0000

 PERCENT DISCREPANCY =           0.00     PERCENT DISCREPANCY =           0.00






         TIME SUMMARY AT END OF TIME STEP   30 IN STRESS PERIOD   19
                    SECONDS     MINUTES      HOURS       DAYS        YEARS
                    -----------------------------------------------------------
   TIME STEP LENGTH  120.00      2.0000     3.33333E-02 1.38889E-03 3.80257E-06
 STRESS PERIOD TIME  3600.0      60.000      1.0000     4.16667E-02 1.14077E-04
         TOTAL TIME  68400.      1140.0      19.000     0.79167     2.16747E-03
1
1
                            STRESS PERIOD NO.   20, LENGTH =   3600.000    
                            -----------------------------------------------

                              NUMBER OF TIME STEPS =    30

                               MULTIPLIER FOR DELT =     1.000

                            INITIAL TIME STEP SIZE =   120.0000    

 ...READING SWR1 PROCESS DATASET 5

 ...READING SWR1 PROCESS DATASET 7B



                   2D RAINFALL DATA
 READING ON UNIT   61 WITH FORMAT: (11E12.4)           

           1          2          3          4          5          6          7          8          9         10         11
 .........................................................................................................................
   1    0.00       0.00       0.00       0.00       0.00       0.00       0.00       0.00       0.00       0.00       0.00    
   2    0.00       0.00       0.00       0.00       0.00       0.00       0.00       0.00       0.00       0.00       0.00    
   3    0.00       0.00       0.00       0.00       0.00       0.00       0.00       0.00       0.00       0.00       0.00    
   4    0.00       0.00       0.00       0.00      1.250E-07  1.250E-07  1.250E-07   0.00       0.00       0.00       0.00    
   5    0.00       0.00       0.00       0.00      1.250E-07  1.250E-07  1.250E-07   0.00       0.00       0.00       0.00    
   6    0.00       0.00       0.00      1.250E-07  1.250E-07  1.250E-07  1.250E-07   0.00       0.00       0.00       0.00    
   7    0.00       0.00       0.00       0.00      1.250E-07  1.250E-07  1.250E-07   0.00       0.00       0.00       0.00    
   8    0.00       0.00       0.00       0.00      1.250E-07  1.250E-07  1.250E-07   0.00       0.00       0.00       0.00    
   9    0.00       0.00       0.00       0.00       0.00       0.00       0.00       0.00       0.00       0.00       0.00    
  10    0.00       0.00       0.00       0.00       0.00       0.00       0.00       0.00       0.00       0.00       0.00    
  11    0.00       0.00       0.00       0.00       0.00       0.00       0.00       0.00       0.00       0.00       0.00    

 ...READING SWR1 PROCESS DATASET 9B



             2D LATERAL INFLOW DATA
 READING ON UNIT   61 WITH FORMAT: (11E12.4)           

           1          2          3          4          5          6          7          8          9         10         11
 .........................................................................................................................
   1   3.126E-02   0.00       0.00       0.00       0.00       0.00       0.00       0.00       0.00       0.00       0.00    
   2   3.126E-02   0.00       0.00       0.00       0.00       0.00       0.00       0.00       0.00       0.00       0.00    
   3   3.126E-02   0.00       0.00       0.00       0.00       0.00       0.00       0.00       0.00       0.00       0.00    
   4   3.126E-02   0.00       0.00       0.00       0.00       0.00       0.00       0.00       0.00       0.00       0.00    
   5   3.126E-02   0.00       0.00       0.00       0.00       0.00       0.00       0.00       0.00       0.00       0.00    
   6   3.126E-02   0.00       0.00       0.00       0.00       0.00       0.00       0.00       0.00       0.00       0.00    
   7   3.126E-02   0.00       0.00       0.00       0.00       0.00       0.00       0.00       0.00       0.00       0.00    
   8   3.126E-02   0.00       0.00       0.00       0.00       0.00       0.00       0.00       0.00       0.00       0.00    
   9   3.126E-02   0.00       0.00       0.00       0.00       0.00       0.00       0.00       0.00       0.00       0.00    
  10   3.126E-02   0.00       0.00       0.00       0.00       0.00       0.00       0.00       0.00       0.00       0.00    
  11   3.126E-02   0.00       0.00       0.00       0.00       0.00       0.00       0.00       0.00       0.00       0.00    
 
 SOLVING FOR HEAD 
 INITIAL HNEW IS AN EXACT SOLUTION.

 OUTPUT CONTROL FOR STRESS PERIOD   20   TIME STEP    1
    SAVE BUDGET

 -------------------------------------------------------------------------------
                             SWR1 OUTPUT PRINT TIMES
                        STRESS PERIOD   20   TIME STEP     1
 --------------- --------------- --------------- --------------- ---------------
      68520.                                                                    
 -------------------------------------------------------------------------------
 
 SOLVING FOR HEAD 
 INITIAL HNEW IS AN EXACT SOLUTION.

 NO OUTPUT CONTROL FOR STRESS PERIOD   20   TIME STEP    2

 -------------------------------------------------------------------------------
                             SWR1 OUTPUT PRINT TIMES
                        STRESS PERIOD   20   TIME STEP     2
 --------------- --------------- --------------- --------------- ---------------
      68640.                                                                    
 -------------------------------------------------------------------------------
 
 SOLVING FOR HEAD 
 INITIAL HNEW IS AN EXACT SOLUTION.

 NO OUTPUT CONTROL FOR STRESS PERIOD   20   TIME STEP    3

 -------------------------------------------------------------------------------
                             SWR1 OUTPUT PRINT TIMES
                        STRESS PERIOD   20   TIME STEP     3
 --------------- --------------- --------------- --------------- ---------------
      68760.                                                                    
 -------------------------------------------------------------------------------
 
 SOLVING FOR HEAD 
 INITIAL HNEW IS AN EXACT SOLUTION.

 NO OUTPUT CONTROL FOR STRESS PERIOD   20   TIME STEP    4

 -------------------------------------------------------------------------------
                             SWR1 OUTPUT PRINT TIMES
                        STRESS PERIOD   20   TIME STEP     4
 --------------- --------------- --------------- --------------- ---------------
      68880.                                                                    
 -------------------------------------------------------------------------------
 
 SOLVING FOR HEAD 
 INITIAL HNEW IS AN EXACT SOLUTION.

 NO OUTPUT CONTROL FOR STRESS PERIOD   20   TIME STEP    5

 -------------------------------------------------------------------------------
                             SWR1 OUTPUT PRINT TIMES
                        STRESS PERIOD   20   TIME STEP     5
 --------------- --------------- --------------- --------------- ---------------
      69000.                                                                    
 -------------------------------------------------------------------------------
 
 SOLVING FOR HEAD 
 INITIAL HNEW IS AN EXACT SOLUTION.

 NO OUTPUT CONTROL FOR STRESS PERIOD   20   TIME STEP    6

 -------------------------------------------------------------------------------
                             SWR1 OUTPUT PRINT TIMES
                        STRESS PERIOD   20   TIME STEP     6
 --------------- --------------- --------------- --------------- ---------------
      69120.                                                                    
 -------------------------------------------------------------------------------
 
 SOLVING FOR HEAD 
 INITIAL HNEW IS AN EXACT SOLUTION.

 NO OUTPUT CONTROL FOR STRESS PERIOD   20   TIME STEP    7

 -------------------------------------------------------------------------------
                             SWR1 OUTPUT PRINT TIMES
                        STRESS PERIOD   20   TIME STEP     7
 --------------- --------------- --------------- --------------- ---------------
      69240.                                                                    
 -------------------------------------------------------------------------------
 
 SOLVING FOR HEAD 
 INITIAL HNEW IS AN EXACT SOLUTION.

 NO OUTPUT CONTROL FOR STRESS PERIOD   20   TIME STEP    8

 -------------------------------------------------------------------------------
                             SWR1 OUTPUT PRINT TIMES
                        STRESS PERIOD   20   TIME STEP     8
 --------------- --------------- --------------- --------------- ---------------
      69360.                                                                    
 -------------------------------------------------------------------------------
 
 SOLVING FOR HEAD 
 INITIAL HNEW IS AN EXACT SOLUTION.

 NO OUTPUT CONTROL FOR STRESS PERIOD   20   TIME STEP    9

 -------------------------------------------------------------------------------
                             SWR1 OUTPUT PRINT TIMES
                        STRESS PERIOD   20   TIME STEP     9
 --------------- --------------- --------------- --------------- ---------------
      69480.                                                                    
 -------------------------------------------------------------------------------
 
 SOLVING FOR HEAD 
 INITIAL HNEW IS AN EXACT SOLUTION.

 NO OUTPUT CONTROL FOR STRESS PERIOD   20   TIME STEP   10

 -------------------------------------------------------------------------------
                             SWR1 OUTPUT PRINT TIMES
                        STRESS PERIOD   20   TIME STEP    10
 --------------- --------------- --------------- --------------- ---------------
      69600.                                                                    
 -------------------------------------------------------------------------------
 
 SOLVING FOR HEAD 
 INITIAL HNEW IS AN EXACT SOLUTION.

 NO OUTPUT CONTROL FOR STRESS PERIOD   20   TIME STEP   11

 -------------------------------------------------------------------------------
                             SWR1 OUTPUT PRINT TIMES
                        STRESS PERIOD   20   TIME STEP    11
 --------------- --------------- --------------- --------------- ---------------
      69720.                                                                    
 -------------------------------------------------------------------------------
 
 SOLVING FOR HEAD 
 INITIAL HNEW IS AN EXACT SOLUTION.

 NO OUTPUT CONTROL FOR STRESS PERIOD   20   TIME STEP   12

 -------------------------------------------------------------------------------
                             SWR1 OUTPUT PRINT TIMES
                        STRESS PERIOD   20   TIME STEP    12
 --------------- --------------- --------------- --------------- ---------------
      69840.                                                                    
 -------------------------------------------------------------------------------
 
 SOLVING FOR HEAD 
 INITIAL HNEW IS AN EXACT SOLUTION.

 NO OUTPUT CONTROL FOR STRESS PERIOD   20   TIME STEP   13

 -------------------------------------------------------------------------------
                             SWR1 OUTPUT PRINT TIMES
                        STRESS PERIOD   20   TIME STEP    13
 --------------- --------------- --------------- --------------- ---------------
      69960.                                                                    
 -------------------------------------------------------------------------------
 
 SOLVING FOR HEAD 
 INITIAL HNEW IS AN EXACT SOLUTION.

 NO OUTPUT CONTROL FOR STRESS PERIOD   20   TIME STEP   14

 -------------------------------------------------------------------------------
                             SWR1 OUTPUT PRINT TIMES
                        STRESS PERIOD   20   TIME STEP    14
 --------------- --------------- --------------- --------------- ---------------
      70080.                                                                    
 -------------------------------------------------------------------------------
 
 SOLVING FOR HEAD 
 INITIAL HNEW IS AN EXACT SOLUTION.

 NO OUTPUT CONTROL FOR STRESS PERIOD   20   TIME STEP   15

 -------------------------------------------------------------------------------
                             SWR1 OUTPUT PRINT TIMES
                        STRESS PERIOD   20   TIME STEP    15
 --------------- --------------- --------------- --------------- ---------------
      70200.                                                                    
 -------------------------------------------------------------------------------
 
 SOLVING FOR HEAD 
 INITIAL HNEW IS AN EXACT SOLUTION.

 NO OUTPUT CONTROL FOR STRESS PERIOD   20   TIME STEP   16

 -------------------------------------------------------------------------------
                             SWR1 OUTPUT PRINT TIMES
                        STRESS PERIOD   20   TIME STEP    16
 --------------- --------------- --------------- --------------- ---------------
      70320.                                                                    
 -------------------------------------------------------------------------------
 
 SOLVING FOR HEAD 
 INITIAL HNEW IS AN EXACT SOLUTION.

 NO OUTPUT CONTROL FOR STRESS PERIOD   20   TIME STEP   17

 -------------------------------------------------------------------------------
                             SWR1 OUTPUT PRINT TIMES
                        STRESS PERIOD   20   TIME STEP    17
 --------------- --------------- --------------- --------------- ---------------
      70440.                                                                    
 -------------------------------------------------------------------------------
 
 SOLVING FOR HEAD 
 INITIAL HNEW IS AN EXACT SOLUTION.

 NO OUTPUT CONTROL FOR STRESS PERIOD   20   TIME STEP   18

 -------------------------------------------------------------------------------
                             SWR1 OUTPUT PRINT TIMES
                        STRESS PERIOD   20   TIME STEP    18
 --------------- --------------- --------------- --------------- ---------------
      70560.                                                                    
 -------------------------------------------------------------------------------
 
 SOLVING FOR HEAD 
 INITIAL HNEW IS AN EXACT SOLUTION.

 NO OUTPUT CONTROL FOR STRESS PERIOD   20   TIME STEP   19

 -------------------------------------------------------------------------------
                             SWR1 OUTPUT PRINT TIMES
                        STRESS PERIOD   20   TIME STEP    19
 --------------- --------------- --------------- --------------- ---------------
      70680.                                                                    
 -------------------------------------------------------------------------------
 
 SOLVING FOR HEAD 
 INITIAL HNEW IS AN EXACT SOLUTION.

 NO OUTPUT CONTROL FOR STRESS PERIOD   20   TIME STEP   20

 -------------------------------------------------------------------------------
                             SWR1 OUTPUT PRINT TIMES
                        STRESS PERIOD   20   TIME STEP    20
 --------------- --------------- --------------- --------------- ---------------
      70800.                                                                    
 -------------------------------------------------------------------------------
 
 SOLVING FOR HEAD 
 INITIAL HNEW IS AN EXACT SOLUTION.

 NO OUTPUT CONTROL FOR STRESS PERIOD   20   TIME STEP   21

 -------------------------------------------------------------------------------
                             SWR1 OUTPUT PRINT TIMES
                        STRESS PERIOD   20   TIME STEP    21
 --------------- --------------- --------------- --------------- ---------------
      70920.                                                                    
 -------------------------------------------------------------------------------
 
 SOLVING FOR HEAD 
 INITIAL HNEW IS AN EXACT SOLUTION.

 NO OUTPUT CONTROL FOR STRESS PERIOD   20   TIME STEP   22

 -------------------------------------------------------------------------------
                             SWR1 OUTPUT PRINT TIMES
                        STRESS PERIOD   20   TIME STEP    22
 --------------- --------------- --------------- --------------- ---------------
      71040.                                                                    
 -------------------------------------------------------------------------------
 
 SOLVING FOR HEAD 
 INITIAL HNEW IS AN EXACT SOLUTION.

 NO OUTPUT CONTROL FOR STRESS PERIOD   20   TIME STEP   23

 -------------------------------------------------------------------------------
                             SWR1 OUTPUT PRINT TIMES
                        STRESS PERIOD   20   TIME STEP    23
 --------------- --------------- --------------- --------------- ---------------
      71160.                                                                    
 -------------------------------------------------------------------------------
 
 SOLVING FOR HEAD 
 INITIAL HNEW IS AN EXACT SOLUTION.

 NO OUTPUT CONTROL FOR STRESS PERIOD   20   TIME STEP   24

 -------------------------------------------------------------------------------
                             SWR1 OUTPUT PRINT TIMES
                        STRESS PERIOD   20   TIME STEP    24
 --------------- --------------- --------------- --------------- ---------------
      71280.                                                                    
 -------------------------------------------------------------------------------
 
 SOLVING FOR HEAD 
 INITIAL HNEW IS AN EXACT SOLUTION.

 NO OUTPUT CONTROL FOR STRESS PERIOD   20   TIME STEP   25

 -------------------------------------------------------------------------------
                             SWR1 OUTPUT PRINT TIMES
                        STRESS PERIOD   20   TIME STEP    25
 --------------- --------------- --------------- --------------- ---------------
      71400.                                                                    
 -------------------------------------------------------------------------------
 
 SOLVING FOR HEAD 
 INITIAL HNEW IS AN EXACT SOLUTION.

 NO OUTPUT CONTROL FOR STRESS PERIOD   20   TIME STEP   26

 -------------------------------------------------------------------------------
                             SWR1 OUTPUT PRINT TIMES
                        STRESS PERIOD   20   TIME STEP    26
 --------------- --------------- --------------- --------------- ---------------
      71520.                                                                    
 -------------------------------------------------------------------------------
 
 SOLVING FOR HEAD 
 INITIAL HNEW IS AN EXACT SOLUTION.

 NO OUTPUT CONTROL FOR STRESS PERIOD   20   TIME STEP   27

 -------------------------------------------------------------------------------
                             SWR1 OUTPUT PRINT TIMES
                        STRESS PERIOD   20   TIME STEP    27
 --------------- --------------- --------------- --------------- ---------------
      71640.                                                                    
 -------------------------------------------------------------------------------
 
 SOLVING FOR HEAD 
 INITIAL HNEW IS AN EXACT SOLUTION.

 NO OUTPUT CONTROL FOR STRESS PERIOD   20   TIME STEP   28

 -------------------------------------------------------------------------------
                             SWR1 OUTPUT PRINT TIMES
                        STRESS PERIOD   20   TIME STEP    28
 --------------- --------------- --------------- --------------- ---------------
      71760.                                                                    
 -------------------------------------------------------------------------------
 
 SOLVING FOR HEAD 
 INITIAL HNEW IS AN EXACT SOLUTION.

 NO OUTPUT CONTROL FOR STRESS PERIOD   20   TIME STEP   29

 -------------------------------------------------------------------------------
                             SWR1 OUTPUT PRINT TIMES
                        STRESS PERIOD   20   TIME STEP    29
 --------------- --------------- --------------- --------------- ---------------
      71880.                                                                    
 -------------------------------------------------------------------------------
 
 SOLVING FOR HEAD 
 INITIAL HNEW IS AN EXACT SOLUTION.

 NO OUTPUT CONTROL FOR STRESS PERIOD   20   TIME STEP   30

 -------------------------------------------------------------------------------
                             SWR1 OUTPUT PRINT TIMES
                        STRESS PERIOD   20   TIME STEP    30
 --------------- --------------- --------------- --------------- ---------------
      72000.                                                                    
 -------------------------------------------------------------------------------


                    VOLUMETRIC SURFACE WATER BUDGET FOR ENTIRE MODEL
                    AT END OF TIME STEP    30 IN STRESS PERIOD   20
  -----------------------------------------------------------------------------------

        CUMULATIVE VOLUMES      L**3       RATES FOR THIS TIME STEP      L**3/T
        ------------------                 ------------------------

              IN:                                      IN:
              ---                                      ---
          LATERAL FLOW  =      687110.3125         LATERAL FLOW  =           0.3439
         UNSAT. RUNOFF  =           0.0000        UNSAT. RUNOFF  =           0.0000
              RAINFALL  =      999432.4375             RAINFALL  =           0.5002
           EVAPORATION  =           0.0000          EVAPORATION  =           0.0000
         REACH-AQ FLOW  =           0.0000        REACH-AQ FLOW  =           0.0000
         EXTERNAL FLOW  =           0.0000        EXTERNAL FLOW  =           0.0000
         BOUNDARY FLOW  =           0.0000        BOUNDARY FLOW  =           0.0000
         CONSTANT FLOW  =           0.0000        CONSTANT FLOW  =           0.0000
               STORAGE  =      325732.5625              STORAGE  =          20.7521

               TOTAL IN =     2012275.2500              TOTAL IN =          21.5962

             OUT:                                     OUT:
             ----                                     ----
          LATERAL FLOW  =           0.0000         LATERAL FLOW  =           0.0000
         UNSAT. RUNOFF  =           0.0000        UNSAT. RUNOFF  =           0.0000
              RAINFALL  =           0.0000             RAINFALL  =           0.0000
           EVAPORATION  =           0.0000          EVAPORATION  =           0.0000
         REACH-AQ FLOW  =           0.0000        REACH-AQ FLOW  =           0.0000
         EXTERNAL FLOW  =           0.0000        EXTERNAL FLOW  =           0.0000
         BOUNDARY FLOW  =           0.0000        BOUNDARY FLOW  =           0.0000
         CONSTANT FLOW  =       45460.5664        CONSTANT FLOW  =           0.9716
               STORAGE  =     1966825.6250              STORAGE  =          20.6248

              TOTAL OUT =     2012286.2500             TOTAL OUT =          21.5964

               IN - OUT =         -11.0000              IN - OUT =      -1.9073E-04

    PERCENT DISCREPANCY =           0.00     PERCENT DISCREPANCY =           0.00

1
  VOLUMETRIC BUDGET FOR ENTIRE MODEL AT END OF TIME STEP   30, STRESS PERIOD  20
  ------------------------------------------------------------------------------

     CUMULATIVE VOLUMES      L**3       RATES FOR THIS TIME STEP      L**3/T
     ------------------                 ------------------------

           IN:                                      IN:
           ---                                      ---
             STORAGE =           0.0000               STORAGE =           0.0000
       CONSTANT HEAD =           0.0000         CONSTANT HEAD =           0.0000
         SWR LEAKAGE =           0.0000           SWR LEAKAGE =           0.0000
            SWR GWET =           0.0000              SWR GWET =           0.0000

            TOTAL IN =           0.0000              TOTAL IN =           0.0000

          OUT:                                     OUT:
          ----                                     ----
             STORAGE =           0.0000               STORAGE =           0.0000
       CONSTANT HEAD =           0.0000         CONSTANT HEAD =           0.0000
         SWR LEAKAGE =           0.0000           SWR LEAKAGE =           0.0000
            SWR GWET =           0.0000              SWR GWET =           0.0000

           TOTAL OUT =           0.0000             TOTAL OUT =           0.0000

            IN - OUT =           0.0000              IN - OUT =           0.0000

 PERCENT DISCREPANCY =           0.00     PERCENT DISCREPANCY =           0.00






         TIME SUMMARY AT END OF TIME STEP   30 IN STRESS PERIOD   20
                    SECONDS     MINUTES      HOURS       DAYS        YEARS
                    -----------------------------------------------------------
   TIME STEP LENGTH  120.00      2.0000     3.33333E-02 1.38889E-03 3.80257E-06
 STRESS PERIOD TIME  3600.0      60.000      1.0000     4.16667E-02 1.14077E-04
         TOTAL TIME  72000.      1200.0      20.000     0.83333     2.28154E-03
1
1
                            STRESS PERIOD NO.   21, LENGTH =   3600.000    
                            -----------------------------------------------

                              NUMBER OF TIME STEPS =    30

                               MULTIPLIER FOR DELT =     1.000

                            INITIAL TIME STEP SIZE =   120.0000    

 ...READING SWR1 PROCESS DATASET 5

 ...READING SWR1 PROCESS DATASET 7B



                   2D RAINFALL DATA
 READING ON UNIT   61 WITH FORMAT: (11E12.4)           

           1          2          3          4          5          6          7          8          9         10         11
 .........................................................................................................................
   1    0.00       0.00       0.00       0.00       0.00       0.00       0.00       0.00       0.00       0.00       0.00    
   2    0.00       0.00       0.00       0.00       0.00       0.00       0.00       0.00       0.00       0.00       0.00    
   3    0.00       0.00       0.00       0.00       0.00       0.00       0.00       0.00       0.00       0.00       0.00    
   4    0.00       0.00       0.00       0.00      3.095E-08  3.095E-08  3.095E-08   0.00       0.00       0.00       0.00    
   5    0.00       0.00       0.00       0.00      3.095E-08  3.095E-08  3.095E-08   0.00       0.00       0.00       0.00    
   6    0.00       0.00       0.00      3.095E-08  3.095E-08  3.095E-08  3.095E-08   0.00       0.00       0.00       0.00    
   7    0.00       0.00       0.00       0.00      3.095E-08  3.095E-08  3.095E-08   0.00       0.00       0.00       0.00    
   8    0.00       0.00       0.00       0.00      3.095E-08  3.095E-08  3.095E-08   0.00       0.00       0.00       0.00    
   9    0.00       0.00       0.00       0.00       0.00       0.00       0.00       0.00       0.00       0.00       0.00    
  10    0.00       0.00       0.00       0.00       0.00       0.00       0.00       0.00       0.00       0.00       0.00    
  11    0.00       0.00       0.00       0.00       0.00       0.00       0.00       0.00       0.00       0.00       0.00    

 ...READING SWR1 PROCESS DATASET 9B



             2D LATERAL INFLOW DATA
 READING ON UNIT   61 WITH FORMAT: (11E12.4)           

           1          2          3          4          5          6          7          8          9         10         11
 .........................................................................................................................
   1   7.738E-03   0.00       0.00       0.00       0.00       0.00       0.00       0.00       0.00       0.00       0.00    
   2   7.738E-03   0.00       0.00       0.00       0.00       0.00       0.00       0.00       0.00       0.00       0.00    
   3   7.738E-03   0.00       0.00       0.00       0.00       0.00       0.00       0.00       0.00       0.00       0.00    
   4   7.738E-03   0.00       0.00       0.00       0.00       0.00       0.00       0.00       0.00       0.00       0.00    
   5   7.738E-03   0.00       0.00       0.00       0.00       0.00       0.00       0.00       0.00       0.00       0.00    
   6   7.738E-03   0.00       0.00       0.00       0.00       0.00       0.00       0.00       0.00       0.00       0.00    
   7   7.738E-03   0.00       0.00       0.00       0.00       0.00       0.00       0.00       0.00       0.00       0.00    
   8   7.738E-03   0.00       0.00       0.00       0.00       0.00       0.00       0.00       0.00       0.00       0.00    
   9   7.738E-03   0.00       0.00       0.00       0.00       0.00       0.00       0.00       0.00       0.00       0.00    
  10   7.738E-03   0.00       0.00       0.00       0.00       0.00       0.00       0.00       0.00       0.00       0.00    
  11   7.738E-03   0.00       0.00       0.00       0.00       0.00       0.00       0.00       0.00       0.00       0.00    
 
 SOLVING FOR HEAD 
 INITIAL HNEW IS AN EXACT SOLUTION.

 OUTPUT CONTROL FOR STRESS PERIOD   21   TIME STEP    1
    SAVE BUDGET

 -------------------------------------------------------------------------------
                             SWR1 OUTPUT PRINT TIMES
                        STRESS PERIOD   21   TIME STEP     1
 --------------- --------------- --------------- --------------- ---------------
      72120.                                                                    
 -------------------------------------------------------------------------------
 
 SOLVING FOR HEAD 
 INITIAL HNEW IS AN EXACT SOLUTION.

 NO OUTPUT CONTROL FOR STRESS PERIOD   21   TIME STEP    2

 -------------------------------------------------------------------------------
                             SWR1 OUTPUT PRINT TIMES
                        STRESS PERIOD   21   TIME STEP     2
 --------------- --------------- --------------- --------------- ---------------
      72240.                                                                    
 -------------------------------------------------------------------------------
 
 SOLVING FOR HEAD 
 INITIAL HNEW IS AN EXACT SOLUTION.

 NO OUTPUT CONTROL FOR STRESS PERIOD   21   TIME STEP    3

 -------------------------------------------------------------------------------
                             SWR1 OUTPUT PRINT TIMES
                        STRESS PERIOD   21   TIME STEP     3
 --------------- --------------- --------------- --------------- ---------------
      72360.                                                                    
 -------------------------------------------------------------------------------
 
 SOLVING FOR HEAD 
 INITIAL HNEW IS AN EXACT SOLUTION.

 NO OUTPUT CONTROL FOR STRESS PERIOD   21   TIME STEP    4

 -------------------------------------------------------------------------------
                             SWR1 OUTPUT PRINT TIMES
                        STRESS PERIOD   21   TIME STEP     4
 --------------- --------------- --------------- --------------- ---------------
      72480.                                                                    
 -------------------------------------------------------------------------------
 
 SOLVING FOR HEAD 
 INITIAL HNEW IS AN EXACT SOLUTION.

 NO OUTPUT CONTROL FOR STRESS PERIOD   21   TIME STEP    5

 -------------------------------------------------------------------------------
                             SWR1 OUTPUT PRINT TIMES
                        STRESS PERIOD   21   TIME STEP     5
 --------------- --------------- --------------- --------------- ---------------
      72600.                                                                    
 -------------------------------------------------------------------------------
 
 SOLVING FOR HEAD 
 INITIAL HNEW IS AN EXACT SOLUTION.

 NO OUTPUT CONTROL FOR STRESS PERIOD   21   TIME STEP    6

 -------------------------------------------------------------------------------
                             SWR1 OUTPUT PRINT TIMES
                        STRESS PERIOD   21   TIME STEP     6
 --------------- --------------- --------------- --------------- ---------------
      72720.                                                                    
 -------------------------------------------------------------------------------
 
 SOLVING FOR HEAD 
 INITIAL HNEW IS AN EXACT SOLUTION.

 NO OUTPUT CONTROL FOR STRESS PERIOD   21   TIME STEP    7

 -------------------------------------------------------------------------------
                             SWR1 OUTPUT PRINT TIMES
                        STRESS PERIOD   21   TIME STEP     7
 --------------- --------------- --------------- --------------- ---------------
      72840.                                                                    
 -------------------------------------------------------------------------------
 
 SOLVING FOR HEAD 
 INITIAL HNEW IS AN EXACT SOLUTION.

 NO OUTPUT CONTROL FOR STRESS PERIOD   21   TIME STEP    8

 -------------------------------------------------------------------------------
                             SWR1 OUTPUT PRINT TIMES
                        STRESS PERIOD   21   TIME STEP     8
 --------------- --------------- --------------- --------------- ---------------
      72960.                                                                    
 -------------------------------------------------------------------------------
 
 SOLVING FOR HEAD 
 INITIAL HNEW IS AN EXACT SOLUTION.

 NO OUTPUT CONTROL FOR STRESS PERIOD   21   TIME STEP    9

 -------------------------------------------------------------------------------
                             SWR1 OUTPUT PRINT TIMES
                        STRESS PERIOD   21   TIME STEP     9
 --------------- --------------- --------------- --------------- ---------------
      73080.                                                                    
 -------------------------------------------------------------------------------
 
 SOLVING FOR HEAD 
 INITIAL HNEW IS AN EXACT SOLUTION.

 NO OUTPUT CONTROL FOR STRESS PERIOD   21   TIME STEP   10

 -------------------------------------------------------------------------------
                             SWR1 OUTPUT PRINT TIMES
                        STRESS PERIOD   21   TIME STEP    10
 --------------- --------------- --------------- --------------- ---------------
      73200.                                                                    
 -------------------------------------------------------------------------------
 
 SOLVING FOR HEAD 
 INITIAL HNEW IS AN EXACT SOLUTION.

 NO OUTPUT CONTROL FOR STRESS PERIOD   21   TIME STEP   11

 -------------------------------------------------------------------------------
                             SWR1 OUTPUT PRINT TIMES
                        STRESS PERIOD   21   TIME STEP    11
 --------------- --------------- --------------- --------------- ---------------
      73320.                                                                    
 -------------------------------------------------------------------------------
 
 SOLVING FOR HEAD 
 INITIAL HNEW IS AN EXACT SOLUTION.

 NO OUTPUT CONTROL FOR STRESS PERIOD   21   TIME STEP   12

 -------------------------------------------------------------------------------
                             SWR1 OUTPUT PRINT TIMES
                        STRESS PERIOD   21   TIME STEP    12
 --------------- --------------- --------------- --------------- ---------------
      73440.                                                                    
 -------------------------------------------------------------------------------
 
 SOLVING FOR HEAD 
 INITIAL HNEW IS AN EXACT SOLUTION.

 NO OUTPUT CONTROL FOR STRESS PERIOD   21   TIME STEP   13

 -------------------------------------------------------------------------------
                             SWR1 OUTPUT PRINT TIMES
                        STRESS PERIOD   21   TIME STEP    13
 --------------- --------------- --------------- --------------- ---------------
      73560.                                                                    
 -------------------------------------------------------------------------------
 
 SOLVING FOR HEAD 
 INITIAL HNEW IS AN EXACT SOLUTION.

 NO OUTPUT CONTROL FOR STRESS PERIOD   21   TIME STEP   14

 -------------------------------------------------------------------------------
                             SWR1 OUTPUT PRINT TIMES
                        STRESS PERIOD   21   TIME STEP    14
 --------------- --------------- --------------- --------------- ---------------
      73680.                                                                    
 -------------------------------------------------------------------------------
 
 SOLVING FOR HEAD 
 INITIAL HNEW IS AN EXACT SOLUTION.

 NO OUTPUT CONTROL FOR STRESS PERIOD   21   TIME STEP   15

 -------------------------------------------------------------------------------
                             SWR1 OUTPUT PRINT TIMES
                        STRESS PERIOD   21   TIME STEP    15
 --------------- --------------- --------------- --------------- ---------------
      73800.                                                                    
 -------------------------------------------------------------------------------
 
 SOLVING FOR HEAD 
 INITIAL HNEW IS AN EXACT SOLUTION.

 NO OUTPUT CONTROL FOR STRESS PERIOD   21   TIME STEP   16

 -------------------------------------------------------------------------------
                             SWR1 OUTPUT PRINT TIMES
                        STRESS PERIOD   21   TIME STEP    16
 --------------- --------------- --------------- --------------- ---------------
      73920.                                                                    
 -------------------------------------------------------------------------------
 
 SOLVING FOR HEAD 
 INITIAL HNEW IS AN EXACT SOLUTION.

 NO OUTPUT CONTROL FOR STRESS PERIOD   21   TIME STEP   17

 -------------------------------------------------------------------------------
                             SWR1 OUTPUT PRINT TIMES
                        STRESS PERIOD   21   TIME STEP    17
 --------------- --------------- --------------- --------------- ---------------
      74040.                                                                    
 -------------------------------------------------------------------------------
 
 SOLVING FOR HEAD 
 INITIAL HNEW IS AN EXACT SOLUTION.

 NO OUTPUT CONTROL FOR STRESS PERIOD   21   TIME STEP   18

 -------------------------------------------------------------------------------
                             SWR1 OUTPUT PRINT TIMES
                        STRESS PERIOD   21   TIME STEP    18
 --------------- --------------- --------------- --------------- ---------------
      74160.                                                                    
 -------------------------------------------------------------------------------
 
 SOLVING FOR HEAD 
 INITIAL HNEW IS AN EXACT SOLUTION.

 NO OUTPUT CONTROL FOR STRESS PERIOD   21   TIME STEP   19

 -------------------------------------------------------------------------------
                             SWR1 OUTPUT PRINT TIMES
                        STRESS PERIOD   21   TIME STEP    19
 --------------- --------------- --------------- --------------- ---------------
      74280.                                                                    
 -------------------------------------------------------------------------------
 
 SOLVING FOR HEAD 
 INITIAL HNEW IS AN EXACT SOLUTION.

 NO OUTPUT CONTROL FOR STRESS PERIOD   21   TIME STEP   20

 -------------------------------------------------------------------------------
                             SWR1 OUTPUT PRINT TIMES
                        STRESS PERIOD   21   TIME STEP    20
 --------------- --------------- --------------- --------------- ---------------
      74400.                                                                    
 -------------------------------------------------------------------------------
 
 SOLVING FOR HEAD 
 INITIAL HNEW IS AN EXACT SOLUTION.

 NO OUTPUT CONTROL FOR STRESS PERIOD   21   TIME STEP   21

 -------------------------------------------------------------------------------
                             SWR1 OUTPUT PRINT TIMES
                        STRESS PERIOD   21   TIME STEP    21
 --------------- --------------- --------------- --------------- ---------------
      74520.                                                                    
 -------------------------------------------------------------------------------
 
 SOLVING FOR HEAD 
 INITIAL HNEW IS AN EXACT SOLUTION.

 NO OUTPUT CONTROL FOR STRESS PERIOD   21   TIME STEP   22

 -------------------------------------------------------------------------------
                             SWR1 OUTPUT PRINT TIMES
                        STRESS PERIOD   21   TIME STEP    22
 --------------- --------------- --------------- --------------- ---------------
      74640.                                                                    
 -------------------------------------------------------------------------------
 
 SOLVING FOR HEAD 
 INITIAL HNEW IS AN EXACT SOLUTION.

 NO OUTPUT CONTROL FOR STRESS PERIOD   21   TIME STEP   23

 -------------------------------------------------------------------------------
                             SWR1 OUTPUT PRINT TIMES
                        STRESS PERIOD   21   TIME STEP    23
 --------------- --------------- --------------- --------------- ---------------
      74760.                                                                    
 -------------------------------------------------------------------------------
 
 SOLVING FOR HEAD 
 INITIAL HNEW IS AN EXACT SOLUTION.

 NO OUTPUT CONTROL FOR STRESS PERIOD   21   TIME STEP   24

 -------------------------------------------------------------------------------
                             SWR1 OUTPUT PRINT TIMES
                        STRESS PERIOD   21   TIME STEP    24
 --------------- --------------- --------------- --------------- ---------------
      74880.                                                                    
 -------------------------------------------------------------------------------
 
 SOLVING FOR HEAD 
 INITIAL HNEW IS AN EXACT SOLUTION.

 NO OUTPUT CONTROL FOR STRESS PERIOD   21   TIME STEP   25

 -------------------------------------------------------------------------------
                             SWR1 OUTPUT PRINT TIMES
                        STRESS PERIOD   21   TIME STEP    25
 --------------- --------------- --------------- --------------- ---------------
      75000.                                                                    
 -------------------------------------------------------------------------------
 
 SOLVING FOR HEAD 
 INITIAL HNEW IS AN EXACT SOLUTION.

 NO OUTPUT CONTROL FOR STRESS PERIOD   21   TIME STEP   26

 -------------------------------------------------------------------------------
                             SWR1 OUTPUT PRINT TIMES
                        STRESS PERIOD   21   TIME STEP    26
 --------------- --------------- --------------- --------------- ---------------
      75120.                                                                    
 -------------------------------------------------------------------------------
 
 SOLVING FOR HEAD 
 INITIAL HNEW IS AN EXACT SOLUTION.

 NO OUTPUT CONTROL FOR STRESS PERIOD   21   TIME STEP   27

 -------------------------------------------------------------------------------
                             SWR1 OUTPUT PRINT TIMES
                        STRESS PERIOD   21   TIME STEP    27
 --------------- --------------- --------------- --------------- ---------------
      75240.                                                                    
 -------------------------------------------------------------------------------
 
 SOLVING FOR HEAD 
 INITIAL HNEW IS AN EXACT SOLUTION.

 NO OUTPUT CONTROL FOR STRESS PERIOD   21   TIME STEP   28

 -------------------------------------------------------------------------------
                             SWR1 OUTPUT PRINT TIMES
                        STRESS PERIOD   21   TIME STEP    28
 --------------- --------------- --------------- --------------- ---------------
      75360.                                                                    
 -------------------------------------------------------------------------------
 
 SOLVING FOR HEAD 
 INITIAL HNEW IS AN EXACT SOLUTION.

 NO OUTPUT CONTROL FOR STRESS PERIOD   21   TIME STEP   29

 -------------------------------------------------------------------------------
                             SWR1 OUTPUT PRINT TIMES
                        STRESS PERIOD   21   TIME STEP    29
 --------------- --------------- --------------- --------------- ---------------
      75480.                                                                    
 -------------------------------------------------------------------------------
 
 SOLVING FOR HEAD 
 INITIAL HNEW IS AN EXACT SOLUTION.

 NO OUTPUT CONTROL FOR STRESS PERIOD   21   TIME STEP   30

 -------------------------------------------------------------------------------
                             SWR1 OUTPUT PRINT TIMES
                        STRESS PERIOD   21   TIME STEP    30
 --------------- --------------- --------------- --------------- ---------------
      75600.                                                                    
 -------------------------------------------------------------------------------


                    VOLUMETRIC SURFACE WATER BUDGET FOR ENTIRE MODEL
                    AT END OF TIME STEP    30 IN STRESS PERIOD   21
  -----------------------------------------------------------------------------------

        CUMULATIVE VOLUMES      L**3       RATES FOR THIS TIME STEP      L**3/T
        ------------------                 ------------------------

              IN:                                      IN:
              ---                                      ---
          LATERAL FLOW  =      687415.9375         LATERAL FLOW  =       8.5115E-02
         UNSAT. RUNOFF  =           0.0000        UNSAT. RUNOFF  =           0.0000
              RAINFALL  =      999878.6875             RAINFALL  =           0.1238
           EVAPORATION  =           0.0000          EVAPORATION  =           0.0000
         REACH-AQ FLOW  =           0.0000        REACH-AQ FLOW  =           0.0000
         EXTERNAL FLOW  =           0.0000        EXTERNAL FLOW  =           0.0000
         BOUNDARY FLOW  =           0.0000        BOUNDARY FLOW  =           0.0000
         CONSTANT FLOW  =           0.0000        CONSTANT FLOW  =           0.0000
               STORAGE  =      397442.1562              STORAGE  =          18.7312

               TOTAL IN =     2084736.7500              TOTAL IN =          18.9401

             OUT:                                     OUT:
             ----                                     ----
          LATERAL FLOW  =           0.0000         LATERAL FLOW  =           0.0000
         UNSAT. RUNOFF  =           0.0000        UNSAT. RUNOFF  =           0.0000
              RAINFALL  =           0.0000             RAINFALL  =           0.0000
           EVAPORATION  =           0.0000          EVAPORATION  =           0.0000
         REACH-AQ FLOW  =           0.0000        REACH-AQ FLOW  =           0.0000
         EXTERNAL FLOW  =           0.0000        EXTERNAL FLOW  =           0.0000
         BOUNDARY FLOW  =           0.0000        BOUNDARY FLOW  =           0.0000
         CONSTANT FLOW  =       49299.7734        CONSTANT FLOW  =           1.1636
               STORAGE  =     2035449.1250              STORAGE  =          17.7766

              TOTAL OUT =     2084748.8750             TOTAL OUT =          18.9402

               IN - OUT =         -12.1250              IN - OUT =      -1.3161E-04

    PERCENT DISCREPANCY =           0.00     PERCENT DISCREPANCY =           0.00

1
  VOLUMETRIC BUDGET FOR ENTIRE MODEL AT END OF TIME STEP   30, STRESS PERIOD  21
  ------------------------------------------------------------------------------

     CUMULATIVE VOLUMES      L**3       RATES FOR THIS TIME STEP      L**3/T
     ------------------                 ------------------------

           IN:                                      IN:
           ---                                      ---
             STORAGE =           0.0000               STORAGE =           0.0000
       CONSTANT HEAD =           0.0000         CONSTANT HEAD =           0.0000
         SWR LEAKAGE =           0.0000           SWR LEAKAGE =           0.0000
            SWR GWET =           0.0000              SWR GWET =           0.0000

            TOTAL IN =           0.0000              TOTAL IN =           0.0000

          OUT:                                     OUT:
          ----                                     ----
             STORAGE =           0.0000               STORAGE =           0.0000
       CONSTANT HEAD =           0.0000         CONSTANT HEAD =           0.0000
         SWR LEAKAGE =           0.0000           SWR LEAKAGE =           0.0000
            SWR GWET =           0.0000              SWR GWET =           0.0000

           TOTAL OUT =           0.0000             TOTAL OUT =           0.0000

            IN - OUT =           0.0000              IN - OUT =           0.0000

 PERCENT DISCREPANCY =           0.00     PERCENT DISCREPANCY =           0.00






         TIME SUMMARY AT END OF TIME STEP   30 IN STRESS PERIOD   21
                    SECONDS     MINUTES      HOURS       DAYS        YEARS
                    -----------------------------------------------------------
   TIME STEP LENGTH  120.00      2.0000     3.33333E-02 1.38889E-03 3.80257E-06
 STRESS PERIOD TIME  3600.0      60.000      1.0000     4.16667E-02 1.14077E-04
         TOTAL TIME  75600.      1260.0      21.000     0.87500     2.39562E-03
1
1
                            STRESS PERIOD NO.   22, LENGTH =   3600.000    
                            -----------------------------------------------

                              NUMBER OF TIME STEPS =    30

                               MULTIPLIER FOR DELT =     1.000

                            INITIAL TIME STEP SIZE =   120.0000    

 ...READING SWR1 PROCESS DATASET 5

 ...READING SWR1 PROCESS DATASET 7B



                   2D RAINFALL DATA
 READING ON UNIT   61 WITH FORMAT: (11E12.4)           

           1          2          3          4          5          6          7          8          9         10         11
 .........................................................................................................................
   1    0.00       0.00       0.00       0.00       0.00       0.00       0.00       0.00       0.00       0.00       0.00    
   2    0.00       0.00       0.00       0.00       0.00       0.00       0.00       0.00       0.00       0.00       0.00    
   3    0.00       0.00       0.00       0.00       0.00       0.00       0.00       0.00       0.00       0.00       0.00    
   4    0.00       0.00       0.00       0.00      6.358E-09  6.358E-09  6.358E-09   0.00       0.00       0.00       0.00    
   5    0.00       0.00       0.00       0.00      6.358E-09  6.358E-09  6.358E-09   0.00       0.00       0.00       0.00    
   6    0.00       0.00       0.00      6.358E-09  6.358E-09  6.358E-09  6.358E-09   0.00       0.00       0.00       0.00    
   7    0.00       0.00       0.00       0.00      6.358E-09  6.358E-09  6.358E-09   0.00       0.00       0.00       0.00    
   8    0.00       0.00       0.00       0.00      6.358E-09  6.358E-09  6.358E-09   0.00       0.00       0.00       0.00    
   9    0.00       0.00       0.00       0.00       0.00       0.00       0.00       0.00       0.00       0.00       0.00    
  10    0.00       0.00       0.00       0.00       0.00       0.00       0.00       0.00       0.00       0.00       0.00    
  11    0.00       0.00       0.00       0.00       0.00       0.00       0.00       0.00       0.00       0.00       0.00    

 ...READING SWR1 PROCESS DATASET 9B



             2D LATERAL INFLOW DATA
 READING ON UNIT   61 WITH FORMAT: (11E12.4)           

           1          2          3          4          5          6          7          8          9         10         11
 .........................................................................................................................
   1   1.589E-03   0.00       0.00       0.00       0.00       0.00       0.00       0.00       0.00       0.00       0.00    
   2   1.589E-03   0.00       0.00       0.00       0.00       0.00       0.00       0.00       0.00       0.00       0.00    
   3   1.589E-03   0.00       0.00       0.00       0.00       0.00       0.00       0.00       0.00       0.00       0.00    
   4   1.589E-03   0.00       0.00       0.00       0.00       0.00       0.00       0.00       0.00       0.00       0.00    
   5   1.589E-03   0.00       0.00       0.00       0.00       0.00       0.00       0.00       0.00       0.00       0.00    
   6   1.589E-03   0.00       0.00       0.00       0.00       0.00       0.00       0.00       0.00       0.00       0.00    
   7   1.589E-03   0.00       0.00       0.00       0.00       0.00       0.00       0.00       0.00       0.00       0.00    
   8   1.589E-03   0.00       0.00       0.00       0.00       0.00       0.00       0.00       0.00       0.00       0.00    
   9   1.589E-03   0.00       0.00       0.00       0.00       0.00       0.00       0.00       0.00       0.00       0.00    
  10   1.589E-03   0.00       0.00       0.00       0.00       0.00       0.00       0.00       0.00       0.00       0.00    
  11   1.589E-03   0.00       0.00       0.00       0.00       0.00       0.00       0.00       0.00       0.00       0.00    
 
 SOLVING FOR HEAD 
 INITIAL HNEW IS AN EXACT SOLUTION.

 OUTPUT CONTROL FOR STRESS PERIOD   22   TIME STEP    1
    SAVE BUDGET

 -------------------------------------------------------------------------------
                             SWR1 OUTPUT PRINT TIMES
                        STRESS PERIOD   22   TIME STEP     1
 --------------- --------------- --------------- --------------- ---------------
      75720.                                                                    
 -------------------------------------------------------------------------------
 
 SOLVING FOR HEAD 
 INITIAL HNEW IS AN EXACT SOLUTION.

 NO OUTPUT CONTROL FOR STRESS PERIOD   22   TIME STEP    2

 -------------------------------------------------------------------------------
                             SWR1 OUTPUT PRINT TIMES
                        STRESS PERIOD   22   TIME STEP     2
 --------------- --------------- --------------- --------------- ---------------
      75840.                                                                    
 -------------------------------------------------------------------------------
 
 SOLVING FOR HEAD 
 INITIAL HNEW IS AN EXACT SOLUTION.

 NO OUTPUT CONTROL FOR STRESS PERIOD   22   TIME STEP    3

 -------------------------------------------------------------------------------
                             SWR1 OUTPUT PRINT TIMES
                        STRESS PERIOD   22   TIME STEP     3
 --------------- --------------- --------------- --------------- ---------------
      75960.                                                                    
 -------------------------------------------------------------------------------
 
 SOLVING FOR HEAD 
 INITIAL HNEW IS AN EXACT SOLUTION.

 NO OUTPUT CONTROL FOR STRESS PERIOD   22   TIME STEP    4

 -------------------------------------------------------------------------------
                             SWR1 OUTPUT PRINT TIMES
                        STRESS PERIOD   22   TIME STEP     4
 --------------- --------------- --------------- --------------- ---------------
      76080.                                                                    
 -------------------------------------------------------------------------------
 
 SOLVING FOR HEAD 
 INITIAL HNEW IS AN EXACT SOLUTION.

 NO OUTPUT CONTROL FOR STRESS PERIOD   22   TIME STEP    5

 -------------------------------------------------------------------------------
                             SWR1 OUTPUT PRINT TIMES
                        STRESS PERIOD   22   TIME STEP     5
 --------------- --------------- --------------- --------------- ---------------
      76200.                                                                    
 -------------------------------------------------------------------------------
 
 SOLVING FOR HEAD 
 INITIAL HNEW IS AN EXACT SOLUTION.

 NO OUTPUT CONTROL FOR STRESS PERIOD   22   TIME STEP    6

 -------------------------------------------------------------------------------
                             SWR1 OUTPUT PRINT TIMES
                        STRESS PERIOD   22   TIME STEP     6
 --------------- --------------- --------------- --------------- ---------------
      76320.                                                                    
 -------------------------------------------------------------------------------
 
 SOLVING FOR HEAD 
 INITIAL HNEW IS AN EXACT SOLUTION.

 NO OUTPUT CONTROL FOR STRESS PERIOD   22   TIME STEP    7

 -------------------------------------------------------------------------------
                             SWR1 OUTPUT PRINT TIMES
                        STRESS PERIOD   22   TIME STEP     7
 --------------- --------------- --------------- --------------- ---------------
      76440.                                                                    
 -------------------------------------------------------------------------------
 
 SOLVING FOR HEAD 
 INITIAL HNEW IS AN EXACT SOLUTION.

 NO OUTPUT CONTROL FOR STRESS PERIOD   22   TIME STEP    8

 -------------------------------------------------------------------------------
                             SWR1 OUTPUT PRINT TIMES
                        STRESS PERIOD   22   TIME STEP     8
 --------------- --------------- --------------- --------------- ---------------
      76560.                                                                    
 -------------------------------------------------------------------------------
 
 SOLVING FOR HEAD 
 INITIAL HNEW IS AN EXACT SOLUTION.

 NO OUTPUT CONTROL FOR STRESS PERIOD   22   TIME STEP    9

 -------------------------------------------------------------------------------
                             SWR1 OUTPUT PRINT TIMES
                        STRESS PERIOD   22   TIME STEP     9
 --------------- --------------- --------------- --------------- ---------------
      76680.                                                                    
 -------------------------------------------------------------------------------
 
 SOLVING FOR HEAD 
 INITIAL HNEW IS AN EXACT SOLUTION.

 NO OUTPUT CONTROL FOR STRESS PERIOD   22   TIME STEP   10

 -------------------------------------------------------------------------------
                             SWR1 OUTPUT PRINT TIMES
                        STRESS PERIOD   22   TIME STEP    10
 --------------- --------------- --------------- --------------- ---------------
      76800.                                                                    
 -------------------------------------------------------------------------------
 
 SOLVING FOR HEAD 
 INITIAL HNEW IS AN EXACT SOLUTION.

 NO OUTPUT CONTROL FOR STRESS PERIOD   22   TIME STEP   11

 -------------------------------------------------------------------------------
                             SWR1 OUTPUT PRINT TIMES
                        STRESS PERIOD   22   TIME STEP    11
 --------------- --------------- --------------- --------------- ---------------
      76920.                                                                    
 -------------------------------------------------------------------------------
 
 SOLVING FOR HEAD 
 INITIAL HNEW IS AN EXACT SOLUTION.

 NO OUTPUT CONTROL FOR STRESS PERIOD   22   TIME STEP   12

 -------------------------------------------------------------------------------
                             SWR1 OUTPUT PRINT TIMES
                        STRESS PERIOD   22   TIME STEP    12
 --------------- --------------- --------------- --------------- ---------------
      77040.                                                                    
 -------------------------------------------------------------------------------
 
 SOLVING FOR HEAD 
 INITIAL HNEW IS AN EXACT SOLUTION.

 NO OUTPUT CONTROL FOR STRESS PERIOD   22   TIME STEP   13

 -------------------------------------------------------------------------------
                             SWR1 OUTPUT PRINT TIMES
                        STRESS PERIOD   22   TIME STEP    13
 --------------- --------------- --------------- --------------- ---------------
      77160.                                                                    
 -------------------------------------------------------------------------------
 
 SOLVING FOR HEAD 
 INITIAL HNEW IS AN EXACT SOLUTION.

 NO OUTPUT CONTROL FOR STRESS PERIOD   22   TIME STEP   14

 -------------------------------------------------------------------------------
                             SWR1 OUTPUT PRINT TIMES
                        STRESS PERIOD   22   TIME STEP    14
 --------------- --------------- --------------- --------------- ---------------
      77280.                                                                    
 -------------------------------------------------------------------------------
 
 SOLVING FOR HEAD 
 INITIAL HNEW IS AN EXACT SOLUTION.

 NO OUTPUT CONTROL FOR STRESS PERIOD   22   TIME STEP   15

 -------------------------------------------------------------------------------
                             SWR1 OUTPUT PRINT TIMES
                        STRESS PERIOD   22   TIME STEP    15
 --------------- --------------- --------------- --------------- ---------------
      77400.                                                                    
 -------------------------------------------------------------------------------
 
 SOLVING FOR HEAD 
 INITIAL HNEW IS AN EXACT SOLUTION.

 NO OUTPUT CONTROL FOR STRESS PERIOD   22   TIME STEP   16

 -------------------------------------------------------------------------------
                             SWR1 OUTPUT PRINT TIMES
                        STRESS PERIOD   22   TIME STEP    16
 --------------- --------------- --------------- --------------- ---------------
      77520.                                                                    
 -------------------------------------------------------------------------------
 
 SOLVING FOR HEAD 
 INITIAL HNEW IS AN EXACT SOLUTION.

 NO OUTPUT CONTROL FOR STRESS PERIOD   22   TIME STEP   17

 -------------------------------------------------------------------------------
                             SWR1 OUTPUT PRINT TIMES
                        STRESS PERIOD   22   TIME STEP    17
 --------------- --------------- --------------- --------------- ---------------
      77640.                                                                    
 -------------------------------------------------------------------------------
 
 SOLVING FOR HEAD 
 INITIAL HNEW IS AN EXACT SOLUTION.

 NO OUTPUT CONTROL FOR STRESS PERIOD   22   TIME STEP   18

 -------------------------------------------------------------------------------
                             SWR1 OUTPUT PRINT TIMES
                        STRESS PERIOD   22   TIME STEP    18
 --------------- --------------- --------------- --------------- ---------------
      77760.                                                                    
 -------------------------------------------------------------------------------
 
 SOLVING FOR HEAD 
 INITIAL HNEW IS AN EXACT SOLUTION.

 NO OUTPUT CONTROL FOR STRESS PERIOD   22   TIME STEP   19

 -------------------------------------------------------------------------------
                             SWR1 OUTPUT PRINT TIMES
                        STRESS PERIOD   22   TIME STEP    19
 --------------- --------------- --------------- --------------- ---------------
      77880.                                                                    
 -------------------------------------------------------------------------------
 
 SOLVING FOR HEAD 
 INITIAL HNEW IS AN EXACT SOLUTION.

 NO OUTPUT CONTROL FOR STRESS PERIOD   22   TIME STEP   20

 -------------------------------------------------------------------------------
                             SWR1 OUTPUT PRINT TIMES
                        STRESS PERIOD   22   TIME STEP    20
 --------------- --------------- --------------- --------------- ---------------
      78000.                                                                    
 -------------------------------------------------------------------------------
 
 SOLVING FOR HEAD 
 INITIAL HNEW IS AN EXACT SOLUTION.

 NO OUTPUT CONTROL FOR STRESS PERIOD   22   TIME STEP   21

 -------------------------------------------------------------------------------
                             SWR1 OUTPUT PRINT TIMES
                        STRESS PERIOD   22   TIME STEP    21
 --------------- --------------- --------------- --------------- ---------------
      78120.                                                                    
 -------------------------------------------------------------------------------
 
 SOLVING FOR HEAD 
 INITIAL HNEW IS AN EXACT SOLUTION.

 NO OUTPUT CONTROL FOR STRESS PERIOD   22   TIME STEP   22

 -------------------------------------------------------------------------------
                             SWR1 OUTPUT PRINT TIMES
                        STRESS PERIOD   22   TIME STEP    22
 --------------- --------------- --------------- --------------- ---------------
      78240.                                                                    
 -------------------------------------------------------------------------------
 
 SOLVING FOR HEAD 
 INITIAL HNEW IS AN EXACT SOLUTION.

 NO OUTPUT CONTROL FOR STRESS PERIOD   22   TIME STEP   23

 -------------------------------------------------------------------------------
                             SWR1 OUTPUT PRINT TIMES
                        STRESS PERIOD   22   TIME STEP    23
 --------------- --------------- --------------- --------------- ---------------
      78360.                                                                    
 -------------------------------------------------------------------------------
 
 SOLVING FOR HEAD 
 INITIAL HNEW IS AN EXACT SOLUTION.

 NO OUTPUT CONTROL FOR STRESS PERIOD   22   TIME STEP   24

 -------------------------------------------------------------------------------
                             SWR1 OUTPUT PRINT TIMES
                        STRESS PERIOD   22   TIME STEP    24
 --------------- --------------- --------------- --------------- ---------------
      78480.                                                                    
 -------------------------------------------------------------------------------
 
 SOLVING FOR HEAD 
 INITIAL HNEW IS AN EXACT SOLUTION.

 NO OUTPUT CONTROL FOR STRESS PERIOD   22   TIME STEP   25

 -------------------------------------------------------------------------------
                             SWR1 OUTPUT PRINT TIMES
                        STRESS PERIOD   22   TIME STEP    25
 --------------- --------------- --------------- --------------- ---------------
      78600.                                                                    
 -------------------------------------------------------------------------------
 
 SOLVING FOR HEAD 
 INITIAL HNEW IS AN EXACT SOLUTION.

 NO OUTPUT CONTROL FOR STRESS PERIOD   22   TIME STEP   26

 -------------------------------------------------------------------------------
                             SWR1 OUTPUT PRINT TIMES
                        STRESS PERIOD   22   TIME STEP    26
 --------------- --------------- --------------- --------------- ---------------
      78720.                                                                    
 -------------------------------------------------------------------------------
 
 SOLVING FOR HEAD 
 INITIAL HNEW IS AN EXACT SOLUTION.

 NO OUTPUT CONTROL FOR STRESS PERIOD   22   TIME STEP   27

 -------------------------------------------------------------------------------
                             SWR1 OUTPUT PRINT TIMES
                        STRESS PERIOD   22   TIME STEP    27
 --------------- --------------- --------------- --------------- ---------------
      78840.                                                                    
 -------------------------------------------------------------------------------
 
 SOLVING FOR HEAD 
 INITIAL HNEW IS AN EXACT SOLUTION.

 NO OUTPUT CONTROL FOR STRESS PERIOD   22   TIME STEP   28

 -------------------------------------------------------------------------------
                             SWR1 OUTPUT PRINT TIMES
                        STRESS PERIOD   22   TIME STEP    28
 --------------- --------------- --------------- --------------- ---------------
      78960.                                                                    
 -------------------------------------------------------------------------------
 
 SOLVING FOR HEAD 
 INITIAL HNEW IS AN EXACT SOLUTION.

 NO OUTPUT CONTROL FOR STRESS PERIOD   22   TIME STEP   29

 -------------------------------------------------------------------------------
                             SWR1 OUTPUT PRINT TIMES
                        STRESS PERIOD   22   TIME STEP    29
 --------------- --------------- --------------- --------------- ---------------
      79080.                                                                    
 -------------------------------------------------------------------------------
 
 SOLVING FOR HEAD 
 INITIAL HNEW IS AN EXACT SOLUTION.

 NO OUTPUT CONTROL FOR STRESS PERIOD   22   TIME STEP   30

 -------------------------------------------------------------------------------
                             SWR1 OUTPUT PRINT TIMES
                        STRESS PERIOD   22   TIME STEP    30
 --------------- --------------- --------------- --------------- ---------------
      79200.                                                                    
 -------------------------------------------------------------------------------


                    VOLUMETRIC SURFACE WATER BUDGET FOR ENTIRE MODEL
                    AT END OF TIME STEP    30 IN STRESS PERIOD   22
  -----------------------------------------------------------------------------------

        CUMULATIVE VOLUMES      L**3       RATES FOR THIS TIME STEP      L**3/T
        ------------------                 ------------------------

              IN:                                      IN:
              ---                                      ---
          LATERAL FLOW  =      687479.6875         LATERAL FLOW  =       1.7484E-02
         UNSAT. RUNOFF  =           0.0000        UNSAT. RUNOFF  =           0.0000
              RAINFALL  =      999970.5625             RAINFALL  =       2.5433E-02
           EVAPORATION  =           0.0000          EVAPORATION  =           0.0000
         REACH-AQ FLOW  =           0.0000        REACH-AQ FLOW  =           0.0000
         EXTERNAL FLOW  =           0.0000        EXTERNAL FLOW  =           0.0000
         BOUNDARY FLOW  =           0.0000        BOUNDARY FLOW  =           0.0000
         CONSTANT FLOW  =           0.0000        CONSTANT FLOW  =           0.0000
               STORAGE  =      464465.9688              STORAGE  =          18.4218

               TOTAL IN =     2151916.2500              TOTAL IN =          18.4647

             OUT:                                     OUT:
             ----                                     ----
          LATERAL FLOW  =           0.0000         LATERAL FLOW  =           0.0000
         UNSAT. RUNOFF  =           0.0000        UNSAT. RUNOFF  =           0.0000
              RAINFALL  =           0.0000             RAINFALL  =           0.0000
           EVAPORATION  =           0.0000          EVAPORATION  =           0.0000
         REACH-AQ FLOW  =           0.0000        REACH-AQ FLOW  =           0.0000
         EXTERNAL FLOW  =           0.0000        EXTERNAL FLOW  =           0.0000
         BOUNDARY FLOW  =           0.0000        BOUNDARY FLOW  =           0.0000
         CONSTANT FLOW  =       53925.4062        CONSTANT FLOW  =           1.4060
               STORAGE  =     2098002.0000              STORAGE  =          17.0588

              TOTAL OUT =     2151927.5000             TOTAL OUT =          18.4648

               IN - OUT =         -11.2500              IN - OUT =      -1.0109E-04

    PERCENT DISCREPANCY =           0.00     PERCENT DISCREPANCY =           0.00

1
  VOLUMETRIC BUDGET FOR ENTIRE MODEL AT END OF TIME STEP   30, STRESS PERIOD  22
  ------------------------------------------------------------------------------

     CUMULATIVE VOLUMES      L**3       RATES FOR THIS TIME STEP      L**3/T
     ------------------                 ------------------------

           IN:                                      IN:
           ---                                      ---
             STORAGE =           0.0000               STORAGE =           0.0000
       CONSTANT HEAD =           0.0000         CONSTANT HEAD =           0.0000
         SWR LEAKAGE =           0.0000           SWR LEAKAGE =           0.0000
            SWR GWET =           0.0000              SWR GWET =           0.0000

            TOTAL IN =           0.0000              TOTAL IN =           0.0000

          OUT:                                     OUT:
          ----                                     ----
             STORAGE =           0.0000               STORAGE =           0.0000
       CONSTANT HEAD =           0.0000         CONSTANT HEAD =           0.0000
         SWR LEAKAGE =           0.0000           SWR LEAKAGE =           0.0000
            SWR GWET =           0.0000              SWR GWET =           0.0000

           TOTAL OUT =           0.0000             TOTAL OUT =           0.0000

            IN - OUT =           0.0000              IN - OUT =           0.0000

 PERCENT DISCREPANCY =           0.00     PERCENT DISCREPANCY =           0.00






         TIME SUMMARY AT END OF TIME STEP   30 IN STRESS PERIOD   22
                    SECONDS     MINUTES      HOURS       DAYS        YEARS
                    -----------------------------------------------------------
   TIME STEP LENGTH  120.00      2.0000     3.33333E-02 1.38889E-03 3.80257E-06
 STRESS PERIOD TIME  3600.0      60.000      1.0000     4.16667E-02 1.14077E-04
         TOTAL TIME  79200.      1320.0      22.000     0.91667     2.50970E-03
1
1
                            STRESS PERIOD NO.   23, LENGTH =   3600.000    
                            -----------------------------------------------

                              NUMBER OF TIME STEPS =    30

                               MULTIPLIER FOR DELT =     1.000

                            INITIAL TIME STEP SIZE =   120.0000    

 ...READING SWR1 PROCESS DATASET 5

 ...READING SWR1 PROCESS DATASET 7B



                   2D RAINFALL DATA
 READING ON UNIT   61 WITH FORMAT: (11E12.4)           

           1          2          3          4          5          6          7          8          9         10         11
 .........................................................................................................................
   1    0.00       0.00       0.00       0.00       0.00       0.00       0.00       0.00       0.00       0.00       0.00    
   2    0.00       0.00       0.00       0.00       0.00       0.00       0.00       0.00       0.00       0.00       0.00    
   3    0.00       0.00       0.00       0.00       0.00       0.00       0.00       0.00       0.00       0.00       0.00    
   4    0.00       0.00       0.00       0.00      1.084E-09  1.084E-09  1.084E-09   0.00       0.00       0.00       0.00    
   5    0.00       0.00       0.00       0.00      1.084E-09  1.084E-09  1.084E-09   0.00       0.00       0.00       0.00    
   6    0.00       0.00       0.00      1.084E-09  1.084E-09  1.084E-09  1.084E-09   0.00       0.00       0.00       0.00    
   7    0.00       0.00       0.00       0.00      1.084E-09  1.084E-09  1.084E-09   0.00       0.00       0.00       0.00    
   8    0.00       0.00       0.00       0.00      1.084E-09  1.084E-09  1.084E-09   0.00       0.00       0.00       0.00    
   9    0.00       0.00       0.00       0.00       0.00       0.00       0.00       0.00       0.00       0.00       0.00    
  10    0.00       0.00       0.00       0.00       0.00       0.00       0.00       0.00       0.00       0.00       0.00    
  11    0.00       0.00       0.00       0.00       0.00       0.00       0.00       0.00       0.00       0.00       0.00    

 ...READING SWR1 PROCESS DATASET 9B



             2D LATERAL INFLOW DATA
 READING ON UNIT   61 WITH FORMAT: (11E12.4)           

           1          2          3          4          5          6          7          8          9         10         11
 .........................................................................................................................
   1   2.710E-04   0.00       0.00       0.00       0.00       0.00       0.00       0.00       0.00       0.00       0.00    
   2   2.710E-04   0.00       0.00       0.00       0.00       0.00       0.00       0.00       0.00       0.00       0.00    
   3   2.710E-04   0.00       0.00       0.00       0.00       0.00       0.00       0.00       0.00       0.00       0.00    
   4   2.710E-04   0.00       0.00       0.00       0.00       0.00       0.00       0.00       0.00       0.00       0.00    
   5   2.710E-04   0.00       0.00       0.00       0.00       0.00       0.00       0.00       0.00       0.00       0.00    
   6   2.710E-04   0.00       0.00       0.00       0.00       0.00       0.00       0.00       0.00       0.00       0.00    
   7   2.710E-04   0.00       0.00       0.00       0.00       0.00       0.00       0.00       0.00       0.00       0.00    
   8   2.710E-04   0.00       0.00       0.00       0.00       0.00       0.00       0.00       0.00       0.00       0.00    
   9   2.710E-04   0.00       0.00       0.00       0.00       0.00       0.00       0.00       0.00       0.00       0.00    
  10   2.710E-04   0.00       0.00       0.00       0.00       0.00       0.00       0.00       0.00       0.00       0.00    
  11   2.710E-04   0.00       0.00       0.00       0.00       0.00       0.00       0.00       0.00       0.00       0.00    
 
 SOLVING FOR HEAD 
 INITIAL HNEW IS AN EXACT SOLUTION.

 OUTPUT CONTROL FOR STRESS PERIOD   23   TIME STEP    1
    SAVE BUDGET

 -------------------------------------------------------------------------------
                             SWR1 OUTPUT PRINT TIMES
                        STRESS PERIOD   23   TIME STEP     1
 --------------- --------------- --------------- --------------- ---------------
      79320.                                                                    
 -------------------------------------------------------------------------------
 
 SOLVING FOR HEAD 
 INITIAL HNEW IS AN EXACT SOLUTION.

 NO OUTPUT CONTROL FOR STRESS PERIOD   23   TIME STEP    2

 -------------------------------------------------------------------------------
                             SWR1 OUTPUT PRINT TIMES
                        STRESS PERIOD   23   TIME STEP     2
 --------------- --------------- --------------- --------------- ---------------
      79440.                                                                    
 -------------------------------------------------------------------------------
 
 SOLVING FOR HEAD 
 INITIAL HNEW IS AN EXACT SOLUTION.

 NO OUTPUT CONTROL FOR STRESS PERIOD   23   TIME STEP    3

 -------------------------------------------------------------------------------
                             SWR1 OUTPUT PRINT TIMES
                        STRESS PERIOD   23   TIME STEP     3
 --------------- --------------- --------------- --------------- ---------------
      79560.                                                                    
 -------------------------------------------------------------------------------
 
 SOLVING FOR HEAD 
 INITIAL HNEW IS AN EXACT SOLUTION.

 NO OUTPUT CONTROL FOR STRESS PERIOD   23   TIME STEP    4

 -------------------------------------------------------------------------------
                             SWR1 OUTPUT PRINT TIMES
                        STRESS PERIOD   23   TIME STEP     4
 --------------- --------------- --------------- --------------- ---------------
      79680.                                                                    
 -------------------------------------------------------------------------------
 
 SOLVING FOR HEAD 
 INITIAL HNEW IS AN EXACT SOLUTION.

 NO OUTPUT CONTROL FOR STRESS PERIOD   23   TIME STEP    5

 -------------------------------------------------------------------------------
                             SWR1 OUTPUT PRINT TIMES
                        STRESS PERIOD   23   TIME STEP     5
 --------------- --------------- --------------- --------------- ---------------
      79800.                                                                    
 -------------------------------------------------------------------------------
 
 SOLVING FOR HEAD 
 INITIAL HNEW IS AN EXACT SOLUTION.

 NO OUTPUT CONTROL FOR STRESS PERIOD   23   TIME STEP    6

 -------------------------------------------------------------------------------
                             SWR1 OUTPUT PRINT TIMES
                        STRESS PERIOD   23   TIME STEP     6
 --------------- --------------- --------------- --------------- ---------------
      79920.                                                                    
 -------------------------------------------------------------------------------
 
 SOLVING FOR HEAD 
 INITIAL HNEW IS AN EXACT SOLUTION.

 NO OUTPUT CONTROL FOR STRESS PERIOD   23   TIME STEP    7

 -------------------------------------------------------------------------------
                             SWR1 OUTPUT PRINT TIMES
                        STRESS PERIOD   23   TIME STEP     7
 --------------- --------------- --------------- --------------- ---------------
      80040.                                                                    
 -------------------------------------------------------------------------------
 
 SOLVING FOR HEAD 
 INITIAL HNEW IS AN EXACT SOLUTION.

 NO OUTPUT CONTROL FOR STRESS PERIOD   23   TIME STEP    8

 -------------------------------------------------------------------------------
                             SWR1 OUTPUT PRINT TIMES
                        STRESS PERIOD   23   TIME STEP     8
 --------------- --------------- --------------- --------------- ---------------
      80160.                                                                    
 -------------------------------------------------------------------------------
 
 SOLVING FOR HEAD 
 INITIAL HNEW IS AN EXACT SOLUTION.

 NO OUTPUT CONTROL FOR STRESS PERIOD   23   TIME STEP    9

 -------------------------------------------------------------------------------
                             SWR1 OUTPUT PRINT TIMES
                        STRESS PERIOD   23   TIME STEP     9
 --------------- --------------- --------------- --------------- ---------------
      80280.                                                                    
 -------------------------------------------------------------------------------
 
 SOLVING FOR HEAD 
 INITIAL HNEW IS AN EXACT SOLUTION.

 NO OUTPUT CONTROL FOR STRESS PERIOD   23   TIME STEP   10

 -------------------------------------------------------------------------------
                             SWR1 OUTPUT PRINT TIMES
                        STRESS PERIOD   23   TIME STEP    10
 --------------- --------------- --------------- --------------- ---------------
      80400.                                                                    
 -------------------------------------------------------------------------------
 
 SOLVING FOR HEAD 
 INITIAL HNEW IS AN EXACT SOLUTION.

 NO OUTPUT CONTROL FOR STRESS PERIOD   23   TIME STEP   11

 -------------------------------------------------------------------------------
                             SWR1 OUTPUT PRINT TIMES
                        STRESS PERIOD   23   TIME STEP    11
 --------------- --------------- --------------- --------------- ---------------
      80520.                                                                    
 -------------------------------------------------------------------------------
 
 SOLVING FOR HEAD 
 INITIAL HNEW IS AN EXACT SOLUTION.

 NO OUTPUT CONTROL FOR STRESS PERIOD   23   TIME STEP   12

 -------------------------------------------------------------------------------
                             SWR1 OUTPUT PRINT TIMES
                        STRESS PERIOD   23   TIME STEP    12
 --------------- --------------- --------------- --------------- ---------------
      80640.                                                                    
 -------------------------------------------------------------------------------
 
 SOLVING FOR HEAD 
 INITIAL HNEW IS AN EXACT SOLUTION.

 NO OUTPUT CONTROL FOR STRESS PERIOD   23   TIME STEP   13

 -------------------------------------------------------------------------------
                             SWR1 OUTPUT PRINT TIMES
                        STRESS PERIOD   23   TIME STEP    13
 --------------- --------------- --------------- --------------- ---------------
      80760.                                                                    
 -------------------------------------------------------------------------------
 
 SOLVING FOR HEAD 
 INITIAL HNEW IS AN EXACT SOLUTION.

 NO OUTPUT CONTROL FOR STRESS PERIOD   23   TIME STEP   14

 -------------------------------------------------------------------------------
                             SWR1 OUTPUT PRINT TIMES
                        STRESS PERIOD   23   TIME STEP    14
 --------------- --------------- --------------- --------------- ---------------
      80880.                                                                    
 -------------------------------------------------------------------------------
 
 SOLVING FOR HEAD 
 INITIAL HNEW IS AN EXACT SOLUTION.

 NO OUTPUT CONTROL FOR STRESS PERIOD   23   TIME STEP   15

 -------------------------------------------------------------------------------
                             SWR1 OUTPUT PRINT TIMES
                        STRESS PERIOD   23   TIME STEP    15
 --------------- --------------- --------------- --------------- ---------------
      81000.                                                                    
 -------------------------------------------------------------------------------
 
 SOLVING FOR HEAD 
 INITIAL HNEW IS AN EXACT SOLUTION.

 NO OUTPUT CONTROL FOR STRESS PERIOD   23   TIME STEP   16

 -------------------------------------------------------------------------------
                             SWR1 OUTPUT PRINT TIMES
                        STRESS PERIOD   23   TIME STEP    16
 --------------- --------------- --------------- --------------- ---------------
      81120.                                                                    
 -------------------------------------------------------------------------------
 
 SOLVING FOR HEAD 
 INITIAL HNEW IS AN EXACT SOLUTION.

 NO OUTPUT CONTROL FOR STRESS PERIOD   23   TIME STEP   17

 -------------------------------------------------------------------------------
                             SWR1 OUTPUT PRINT TIMES
                        STRESS PERIOD   23   TIME STEP    17
 --------------- --------------- --------------- --------------- ---------------
      81240.                                                                    
 -------------------------------------------------------------------------------
 
 SOLVING FOR HEAD 
 INITIAL HNEW IS AN EXACT SOLUTION.

 NO OUTPUT CONTROL FOR STRESS PERIOD   23   TIME STEP   18

 -------------------------------------------------------------------------------
                             SWR1 OUTPUT PRINT TIMES
                        STRESS PERIOD   23   TIME STEP    18
 --------------- --------------- --------------- --------------- ---------------
      81360.                                                                    
 -------------------------------------------------------------------------------
 
 SOLVING FOR HEAD 
 INITIAL HNEW IS AN EXACT SOLUTION.

 NO OUTPUT CONTROL FOR STRESS PERIOD   23   TIME STEP   19

 -------------------------------------------------------------------------------
                             SWR1 OUTPUT PRINT TIMES
                        STRESS PERIOD   23   TIME STEP    19
 --------------- --------------- --------------- --------------- ---------------
      81480.                                                                    
 -------------------------------------------------------------------------------
 
 SOLVING FOR HEAD 
 INITIAL HNEW IS AN EXACT SOLUTION.

 NO OUTPUT CONTROL FOR STRESS PERIOD   23   TIME STEP   20

 -------------------------------------------------------------------------------
                             SWR1 OUTPUT PRINT TIMES
                        STRESS PERIOD   23   TIME STEP    20
 --------------- --------------- --------------- --------------- ---------------
      81600.                                                                    
 -------------------------------------------------------------------------------
 
 SOLVING FOR HEAD 
 INITIAL HNEW IS AN EXACT SOLUTION.

 NO OUTPUT CONTROL FOR STRESS PERIOD   23   TIME STEP   21

 -------------------------------------------------------------------------------
                             SWR1 OUTPUT PRINT TIMES
                        STRESS PERIOD   23   TIME STEP    21
 --------------- --------------- --------------- --------------- ---------------
      81720.                                                                    
 -------------------------------------------------------------------------------
 
 SOLVING FOR HEAD 
 INITIAL HNEW IS AN EXACT SOLUTION.

 NO OUTPUT CONTROL FOR STRESS PERIOD   23   TIME STEP   22

 -------------------------------------------------------------------------------
                             SWR1 OUTPUT PRINT TIMES
                        STRESS PERIOD   23   TIME STEP    22
 --------------- --------------- --------------- --------------- ---------------
      81840.                                                                    
 -------------------------------------------------------------------------------
 
 SOLVING FOR HEAD 
 INITIAL HNEW IS AN EXACT SOLUTION.

 NO OUTPUT CONTROL FOR STRESS PERIOD   23   TIME STEP   23

 -------------------------------------------------------------------------------
                             SWR1 OUTPUT PRINT TIMES
                        STRESS PERIOD   23   TIME STEP    23
 --------------- --------------- --------------- --------------- ---------------
      81960.                                                                    
 -------------------------------------------------------------------------------
 
 SOLVING FOR HEAD 
 INITIAL HNEW IS AN EXACT SOLUTION.

 NO OUTPUT CONTROL FOR STRESS PERIOD   23   TIME STEP   24

 -------------------------------------------------------------------------------
                             SWR1 OUTPUT PRINT TIMES
                        STRESS PERIOD   23   TIME STEP    24
 --------------- --------------- --------------- --------------- ---------------
      82080.                                                                    
 -------------------------------------------------------------------------------
 
 SOLVING FOR HEAD 
 INITIAL HNEW IS AN EXACT SOLUTION.

 NO OUTPUT CONTROL FOR STRESS PERIOD   23   TIME STEP   25

 -------------------------------------------------------------------------------
                             SWR1 OUTPUT PRINT TIMES
                        STRESS PERIOD   23   TIME STEP    25
 --------------- --------------- --------------- --------------- ---------------
      82200.                                                                    
 -------------------------------------------------------------------------------
 
 SOLVING FOR HEAD 
 INITIAL HNEW IS AN EXACT SOLUTION.

 NO OUTPUT CONTROL FOR STRESS PERIOD   23   TIME STEP   26

 -------------------------------------------------------------------------------
                             SWR1 OUTPUT PRINT TIMES
                        STRESS PERIOD   23   TIME STEP    26
 --------------- --------------- --------------- --------------- ---------------
      82320.                                                                    
 -------------------------------------------------------------------------------
 
 SOLVING FOR HEAD 
 INITIAL HNEW IS AN EXACT SOLUTION.

 NO OUTPUT CONTROL FOR STRESS PERIOD   23   TIME STEP   27

 -------------------------------------------------------------------------------
                             SWR1 OUTPUT PRINT TIMES
                        STRESS PERIOD   23   TIME STEP    27
 --------------- --------------- --------------- --------------- ---------------
      82440.                                                                    
 -------------------------------------------------------------------------------
 
 SOLVING FOR HEAD 
 INITIAL HNEW IS AN EXACT SOLUTION.

 NO OUTPUT CONTROL FOR STRESS PERIOD   23   TIME STEP   28

 -------------------------------------------------------------------------------
                             SWR1 OUTPUT PRINT TIMES
                        STRESS PERIOD   23   TIME STEP    28
 --------------- --------------- --------------- --------------- ---------------
      82560.                                                                    
 -------------------------------------------------------------------------------
 
 SOLVING FOR HEAD 
 INITIAL HNEW IS AN EXACT SOLUTION.

 NO OUTPUT CONTROL FOR STRESS PERIOD   23   TIME STEP   29

 -------------------------------------------------------------------------------
                             SWR1 OUTPUT PRINT TIMES
                        STRESS PERIOD   23   TIME STEP    29
 --------------- --------------- --------------- --------------- ---------------
      82680.                                                                    
 -------------------------------------------------------------------------------
 
 SOLVING FOR HEAD 
 INITIAL HNEW IS AN EXACT SOLUTION.

 NO OUTPUT CONTROL FOR STRESS PERIOD   23   TIME STEP   30

 -------------------------------------------------------------------------------
                             SWR1 OUTPUT PRINT TIMES
                        STRESS PERIOD   23   TIME STEP    30
 --------------- --------------- --------------- --------------- ---------------
      82800.                                                                    
 -------------------------------------------------------------------------------


                    VOLUMETRIC SURFACE WATER BUDGET FOR ENTIRE MODEL
                    AT END OF TIME STEP    30 IN STRESS PERIOD   23
  -----------------------------------------------------------------------------------

        CUMULATIVE VOLUMES      L**3       RATES FOR THIS TIME STEP      L**3/T
        ------------------                 ------------------------

              IN:                                      IN:
              ---                                      ---
          LATERAL FLOW  =      687490.9375         LATERAL FLOW  =       2.9809E-03
         UNSAT. RUNOFF  =           0.0000        UNSAT. RUNOFF  =           0.0000
              RAINFALL  =      999985.5625             RAINFALL  =       4.3360E-03
           EVAPORATION  =           0.0000          EVAPORATION  =           0.0000
         REACH-AQ FLOW  =           0.0000        REACH-AQ FLOW  =           0.0000
         EXTERNAL FLOW  =           0.0000        EXTERNAL FLOW  =           0.0000
         BOUNDARY FLOW  =           0.0000        BOUNDARY FLOW  =           0.0000
         CONSTANT FLOW  =           0.0000        CONSTANT FLOW  =           0.0000
               STORAGE  =      530043.0625              STORAGE  =          17.9875

               TOTAL IN =     2217519.5000              TOTAL IN =          17.9948

             OUT:                                     OUT:
             ----                                     ----
          LATERAL FLOW  =           0.0000         LATERAL FLOW  =           0.0000
         UNSAT. RUNOFF  =           0.0000        UNSAT. RUNOFF  =           0.0000
              RAINFALL  =           0.0000             RAINFALL  =           0.0000
           EVAPORATION  =           0.0000          EVAPORATION  =           0.0000
         REACH-AQ FLOW  =           0.0000        REACH-AQ FLOW  =           0.0000
         EXTERNAL FLOW  =           0.0000        EXTERNAL FLOW  =           0.0000
         BOUNDARY FLOW  =           0.0000        BOUNDARY FLOW  =           0.0000
         CONSTANT FLOW  =       59506.7695        CONSTANT FLOW  =           1.6917
               STORAGE  =     2158023.2500              STORAGE  =          16.3032

              TOTAL OUT =     2217530.0000             TOTAL OUT =          17.9949

               IN - OUT =         -10.5000              IN - OUT =      -8.3923E-05

    PERCENT DISCREPANCY =           0.00     PERCENT DISCREPANCY =           0.00

1
  VOLUMETRIC BUDGET FOR ENTIRE MODEL AT END OF TIME STEP   30, STRESS PERIOD  23
  ------------------------------------------------------------------------------

     CUMULATIVE VOLUMES      L**3       RATES FOR THIS TIME STEP      L**3/T
     ------------------                 ------------------------

           IN:                                      IN:
           ---                                      ---
             STORAGE =           0.0000               STORAGE =           0.0000
       CONSTANT HEAD =           0.0000         CONSTANT HEAD =           0.0000
         SWR LEAKAGE =           0.0000           SWR LEAKAGE =           0.0000
            SWR GWET =           0.0000              SWR GWET =           0.0000

            TOTAL IN =           0.0000              TOTAL IN =           0.0000

          OUT:                                     OUT:
          ----                                     ----
             STORAGE =           0.0000               STORAGE =           0.0000
       CONSTANT HEAD =           0.0000         CONSTANT HEAD =           0.0000
         SWR LEAKAGE =           0.0000           SWR LEAKAGE =           0.0000
            SWR GWET =           0.0000              SWR GWET =           0.0000

           TOTAL OUT =           0.0000             TOTAL OUT =           0.0000

            IN - OUT =           0.0000              IN - OUT =           0.0000

 PERCENT DISCREPANCY =           0.00     PERCENT DISCREPANCY =           0.00






         TIME SUMMARY AT END OF TIME STEP   30 IN STRESS PERIOD   23
                    SECONDS     MINUTES      HOURS       DAYS        YEARS
                    -----------------------------------------------------------
   TIME STEP LENGTH  120.00      2.0000     3.33333E-02 1.38889E-03 3.80257E-06
 STRESS PERIOD TIME  3600.0      60.000      1.0000     4.16667E-02 1.14077E-04
         TOTAL TIME  82800.      1380.0      23.000     0.95833     2.62377E-03
1
1
                            STRESS PERIOD NO.   24, LENGTH =   3600.000    
                            -----------------------------------------------

                              NUMBER OF TIME STEPS =    30

                               MULTIPLIER FOR DELT =     1.000

                            INITIAL TIME STEP SIZE =   120.0000    

 ...READING SWR1 PROCESS DATASET 5

 ...READING SWR1 PROCESS DATASET 7B



                   2D RAINFALL DATA
 READING ON UNIT   61 WITH FORMAT: (11E12.4)           

           1          2          3          4          5          6          7          8          9         10         11
 .........................................................................................................................
   1    0.00       0.00       0.00       0.00       0.00       0.00       0.00       0.00       0.00       0.00       0.00    
   2    0.00       0.00       0.00       0.00       0.00       0.00       0.00       0.00       0.00       0.00       0.00    
   3    0.00       0.00       0.00       0.00       0.00       0.00       0.00       0.00       0.00       0.00       0.00    
   4    0.00       0.00       0.00       0.00      1.533E-10  1.533E-10  1.533E-10   0.00       0.00       0.00       0.00    
   5    0.00       0.00       0.00       0.00      1.533E-10  1.533E-10  1.533E-10   0.00       0.00       0.00       0.00    
   6    0.00       0.00       0.00      1.533E-10  1.533E-10  1.533E-10  1.533E-10   0.00       0.00       0.00       0.00    
   7    0.00       0.00       0.00       0.00      1.533E-10  1.533E-10  1.533E-10   0.00       0.00       0.00       0.00    
   8    0.00       0.00       0.00       0.00      1.533E-10  1.533E-10  1.533E-10   0.00       0.00       0.00       0.00    
   9    0.00       0.00       0.00       0.00       0.00       0.00       0.00       0.00       0.00       0.00       0.00    
  10    0.00       0.00       0.00       0.00       0.00       0.00       0.00       0.00       0.00       0.00       0.00    
  11    0.00       0.00       0.00       0.00       0.00       0.00       0.00       0.00       0.00       0.00       0.00    

 ...READING SWR1 PROCESS DATASET 9B



             2D LATERAL INFLOW DATA
 READING ON UNIT   61 WITH FORMAT: (11E12.4)           

           1          2          3          4          5          6          7          8          9         10         11
 .........................................................................................................................
   1   3.834E-05   0.00       0.00       0.00       0.00       0.00       0.00       0.00       0.00       0.00       0.00    
   2   3.834E-05   0.00       0.00       0.00       0.00       0.00       0.00       0.00       0.00       0.00       0.00    
   3   3.834E-05   0.00       0.00       0.00       0.00       0.00       0.00       0.00       0.00       0.00       0.00    
   4   3.834E-05   0.00       0.00       0.00       0.00       0.00       0.00       0.00       0.00       0.00       0.00    
   5   3.834E-05   0.00       0.00       0.00       0.00       0.00       0.00       0.00       0.00       0.00       0.00    
   6   3.834E-05   0.00       0.00       0.00       0.00       0.00       0.00       0.00       0.00       0.00       0.00    
   7   3.834E-05   0.00       0.00       0.00       0.00       0.00       0.00       0.00       0.00       0.00       0.00    
   8   3.834E-05   0.00       0.00       0.00       0.00       0.00       0.00       0.00       0.00       0.00       0.00    
   9   3.834E-05   0.00       0.00       0.00       0.00       0.00       0.00       0.00       0.00       0.00       0.00    
  10   3.834E-05   0.00       0.00       0.00       0.00       0.00       0.00       0.00       0.00       0.00       0.00    
  11   3.834E-05   0.00       0.00       0.00       0.00       0.00       0.00       0.00       0.00       0.00       0.00    
 
 SOLVING FOR HEAD 
 INITIAL HNEW IS AN EXACT SOLUTION.

 OUTPUT CONTROL FOR STRESS PERIOD   24   TIME STEP    1
    SAVE BUDGET

 -------------------------------------------------------------------------------
                             SWR1 OUTPUT PRINT TIMES
                        STRESS PERIOD   24   TIME STEP     1
 --------------- --------------- --------------- --------------- ---------------
      82920.                                                                    
 -------------------------------------------------------------------------------
 
 SOLVING FOR HEAD 
 INITIAL HNEW IS AN EXACT SOLUTION.

 NO OUTPUT CONTROL FOR STRESS PERIOD   24   TIME STEP    2

 -------------------------------------------------------------------------------
                             SWR1 OUTPUT PRINT TIMES
                        STRESS PERIOD   24   TIME STEP     2
 --------------- --------------- --------------- --------------- ---------------
      83040.                                                                    
 -------------------------------------------------------------------------------
 
 SOLVING FOR HEAD 
 INITIAL HNEW IS AN EXACT SOLUTION.

 NO OUTPUT CONTROL FOR STRESS PERIOD   24   TIME STEP    3

 -------------------------------------------------------------------------------
                             SWR1 OUTPUT PRINT TIMES
                        STRESS PERIOD   24   TIME STEP     3
 --------------- --------------- --------------- --------------- ---------------
      83160.                                                                    
 -------------------------------------------------------------------------------
 
 SOLVING FOR HEAD 
 INITIAL HNEW IS AN EXACT SOLUTION.

 NO OUTPUT CONTROL FOR STRESS PERIOD   24   TIME STEP    4

 -------------------------------------------------------------------------------
                             SWR1 OUTPUT PRINT TIMES
                        STRESS PERIOD   24   TIME STEP     4
 --------------- --------------- --------------- --------------- ---------------
      83280.                                                                    
 -------------------------------------------------------------------------------
 
 SOLVING FOR HEAD 
 INITIAL HNEW IS AN EXACT SOLUTION.

 NO OUTPUT CONTROL FOR STRESS PERIOD   24   TIME STEP    5

 -------------------------------------------------------------------------------
                             SWR1 OUTPUT PRINT TIMES
                        STRESS PERIOD   24   TIME STEP     5
 --------------- --------------- --------------- --------------- ---------------
      83400.                                                                    
 -------------------------------------------------------------------------------
 
 SOLVING FOR HEAD 
 INITIAL HNEW IS AN EXACT SOLUTION.

 NO OUTPUT CONTROL FOR STRESS PERIOD   24   TIME STEP    6

 -------------------------------------------------------------------------------
                             SWR1 OUTPUT PRINT TIMES
                        STRESS PERIOD   24   TIME STEP     6
 --------------- --------------- --------------- --------------- ---------------
      83520.                                                                    
 -------------------------------------------------------------------------------
 
 SOLVING FOR HEAD 
 INITIAL HNEW IS AN EXACT SOLUTION.

 NO OUTPUT CONTROL FOR STRESS PERIOD   24   TIME STEP    7

 -------------------------------------------------------------------------------
                             SWR1 OUTPUT PRINT TIMES
                        STRESS PERIOD   24   TIME STEP     7
 --------------- --------------- --------------- --------------- ---------------
      83640.                                                                    
 -------------------------------------------------------------------------------
 
 SOLVING FOR HEAD 
 INITIAL HNEW IS AN EXACT SOLUTION.

 NO OUTPUT CONTROL FOR STRESS PERIOD   24   TIME STEP    8

 -------------------------------------------------------------------------------
                             SWR1 OUTPUT PRINT TIMES
                        STRESS PERIOD   24   TIME STEP     8
 --------------- --------------- --------------- --------------- ---------------
      83760.                                                                    
 -------------------------------------------------------------------------------
 
 SOLVING FOR HEAD 
 INITIAL HNEW IS AN EXACT SOLUTION.

 NO OUTPUT CONTROL FOR STRESS PERIOD   24   TIME STEP    9

 -------------------------------------------------------------------------------
                             SWR1 OUTPUT PRINT TIMES
                        STRESS PERIOD   24   TIME STEP     9
 --------------- --------------- --------------- --------------- ---------------
      83880.                                                                    
 -------------------------------------------------------------------------------
 
 SOLVING FOR HEAD 
 INITIAL HNEW IS AN EXACT SOLUTION.

 NO OUTPUT CONTROL FOR STRESS PERIOD   24   TIME STEP   10

 -------------------------------------------------------------------------------
                             SWR1 OUTPUT PRINT TIMES
                        STRESS PERIOD   24   TIME STEP    10
 --------------- --------------- --------------- --------------- ---------------
      84000.                                                                    
 -------------------------------------------------------------------------------
 
 SOLVING FOR HEAD 
 INITIAL HNEW IS AN EXACT SOLUTION.

 NO OUTPUT CONTROL FOR STRESS PERIOD   24   TIME STEP   11

 -------------------------------------------------------------------------------
                             SWR1 OUTPUT PRINT TIMES
                        STRESS PERIOD   24   TIME STEP    11
 --------------- --------------- --------------- --------------- ---------------
      84120.                                                                    
 -------------------------------------------------------------------------------
 
 SOLVING FOR HEAD 
 INITIAL HNEW IS AN EXACT SOLUTION.

 NO OUTPUT CONTROL FOR STRESS PERIOD   24   TIME STEP   12

 -------------------------------------------------------------------------------
                             SWR1 OUTPUT PRINT TIMES
                        STRESS PERIOD   24   TIME STEP    12
 --------------- --------------- --------------- --------------- ---------------
      84240.                                                                    
 -------------------------------------------------------------------------------
 
 SOLVING FOR HEAD 
 INITIAL HNEW IS AN EXACT SOLUTION.

 NO OUTPUT CONTROL FOR STRESS PERIOD   24   TIME STEP   13

 -------------------------------------------------------------------------------
                             SWR1 OUTPUT PRINT TIMES
                        STRESS PERIOD   24   TIME STEP    13
 --------------- --------------- --------------- --------------- ---------------
      84360.                                                                    
 -------------------------------------------------------------------------------
 
 SOLVING FOR HEAD 
 INITIAL HNEW IS AN EXACT SOLUTION.

 NO OUTPUT CONTROL FOR STRESS PERIOD   24   TIME STEP   14

 -------------------------------------------------------------------------------
                             SWR1 OUTPUT PRINT TIMES
                        STRESS PERIOD   24   TIME STEP    14
 --------------- --------------- --------------- --------------- ---------------
      84480.                                                                    
 -------------------------------------------------------------------------------
 
 SOLVING FOR HEAD 
 INITIAL HNEW IS AN EXACT SOLUTION.

 NO OUTPUT CONTROL FOR STRESS PERIOD   24   TIME STEP   15

 -------------------------------------------------------------------------------
                             SWR1 OUTPUT PRINT TIMES
                        STRESS PERIOD   24   TIME STEP    15
 --------------- --------------- --------------- --------------- ---------------
      84600.                                                                    
 -------------------------------------------------------------------------------
 
 SOLVING FOR HEAD 
 INITIAL HNEW IS AN EXACT SOLUTION.

 NO OUTPUT CONTROL FOR STRESS PERIOD   24   TIME STEP   16

 -------------------------------------------------------------------------------
                             SWR1 OUTPUT PRINT TIMES
                        STRESS PERIOD   24   TIME STEP    16
 --------------- --------------- --------------- --------------- ---------------
      84720.                                                                    
 -------------------------------------------------------------------------------
 
 SOLVING FOR HEAD 
 INITIAL HNEW IS AN EXACT SOLUTION.

 NO OUTPUT CONTROL FOR STRESS PERIOD   24   TIME STEP   17

 -------------------------------------------------------------------------------
                             SWR1 OUTPUT PRINT TIMES
                        STRESS PERIOD   24   TIME STEP    17
 --------------- --------------- --------------- --------------- ---------------
      84840.                                                                    
 -------------------------------------------------------------------------------
 
 SOLVING FOR HEAD 
 INITIAL HNEW IS AN EXACT SOLUTION.

 NO OUTPUT CONTROL FOR STRESS PERIOD   24   TIME STEP   18

 -------------------------------------------------------------------------------
                             SWR1 OUTPUT PRINT TIMES
                        STRESS PERIOD   24   TIME STEP    18
 --------------- --------------- --------------- --------------- ---------------
      84960.                                                                    
 -------------------------------------------------------------------------------
 
 SOLVING FOR HEAD 
 INITIAL HNEW IS AN EXACT SOLUTION.

 NO OUTPUT CONTROL FOR STRESS PERIOD   24   TIME STEP   19

 -------------------------------------------------------------------------------
                             SWR1 OUTPUT PRINT TIMES
                        STRESS PERIOD   24   TIME STEP    19
 --------------- --------------- --------------- --------------- ---------------
      85080.                                                                    
 -------------------------------------------------------------------------------
 
 SOLVING FOR HEAD 
 INITIAL HNEW IS AN EXACT SOLUTION.

 NO OUTPUT CONTROL FOR STRESS PERIOD   24   TIME STEP   20

 -------------------------------------------------------------------------------
                             SWR1 OUTPUT PRINT TIMES
                        STRESS PERIOD   24   TIME STEP    20
 --------------- --------------- --------------- --------------- ---------------
      85200.                                                                    
 -------------------------------------------------------------------------------
 
 SOLVING FOR HEAD 
 INITIAL HNEW IS AN EXACT SOLUTION.

 NO OUTPUT CONTROL FOR STRESS PERIOD   24   TIME STEP   21

 -------------------------------------------------------------------------------
                             SWR1 OUTPUT PRINT TIMES
                        STRESS PERIOD   24   TIME STEP    21
 --------------- --------------- --------------- --------------- ---------------
      85320.                                                                    
 -------------------------------------------------------------------------------
 
 SOLVING FOR HEAD 
 INITIAL HNEW IS AN EXACT SOLUTION.

 NO OUTPUT CONTROL FOR STRESS PERIOD   24   TIME STEP   22

 -------------------------------------------------------------------------------
                             SWR1 OUTPUT PRINT TIMES
                        STRESS PERIOD   24   TIME STEP    22
 --------------- --------------- --------------- --------------- ---------------
      85440.                                                                    
 -------------------------------------------------------------------------------
 
 SOLVING FOR HEAD 
 INITIAL HNEW IS AN EXACT SOLUTION.

 NO OUTPUT CONTROL FOR STRESS PERIOD   24   TIME STEP   23

 -------------------------------------------------------------------------------
                             SWR1 OUTPUT PRINT TIMES
                        STRESS PERIOD   24   TIME STEP    23
 --------------- --------------- --------------- --------------- ---------------
      85560.                                                                    
 -------------------------------------------------------------------------------
 
 SOLVING FOR HEAD 
 INITIAL HNEW IS AN EXACT SOLUTION.

 NO OUTPUT CONTROL FOR STRESS PERIOD   24   TIME STEP   24

 -------------------------------------------------------------------------------
                             SWR1 OUTPUT PRINT TIMES
                        STRESS PERIOD   24   TIME STEP    24
 --------------- --------------- --------------- --------------- ---------------
      85680.                                                                    
 -------------------------------------------------------------------------------
 
 SOLVING FOR HEAD 
 INITIAL HNEW IS AN EXACT SOLUTION.

 NO OUTPUT CONTROL FOR STRESS PERIOD   24   TIME STEP   25

 -------------------------------------------------------------------------------
                             SWR1 OUTPUT PRINT TIMES
                        STRESS PERIOD   24   TIME STEP    25
 --------------- --------------- --------------- --------------- ---------------
      85800.                                                                    
 -------------------------------------------------------------------------------
 
 SOLVING FOR HEAD 
 INITIAL HNEW IS AN EXACT SOLUTION.

 NO OUTPUT CONTROL FOR STRESS PERIOD   24   TIME STEP   26

 -------------------------------------------------------------------------------
                             SWR1 OUTPUT PRINT TIMES
                        STRESS PERIOD   24   TIME STEP    26
 --------------- --------------- --------------- --------------- ---------------
      85920.                                                                    
 -------------------------------------------------------------------------------
 
 SOLVING FOR HEAD 
 INITIAL HNEW IS AN EXACT SOLUTION.

 NO OUTPUT CONTROL FOR STRESS PERIOD   24   TIME STEP   27

 -------------------------------------------------------------------------------
                             SWR1 OUTPUT PRINT TIMES
                        STRESS PERIOD   24   TIME STEP    27
 --------------- --------------- --------------- --------------- ---------------
      86040.                                                                    
 -------------------------------------------------------------------------------
 
 SOLVING FOR HEAD 
 INITIAL HNEW IS AN EXACT SOLUTION.

 NO OUTPUT CONTROL FOR STRESS PERIOD   24   TIME STEP   28

 -------------------------------------------------------------------------------
                             SWR1 OUTPUT PRINT TIMES
                        STRESS PERIOD   24   TIME STEP    28
 --------------- --------------- --------------- --------------- ---------------
      86160.                                                                    
 -------------------------------------------------------------------------------
 
 SOLVING FOR HEAD 
 INITIAL HNEW IS AN EXACT SOLUTION.

 NO OUTPUT CONTROL FOR STRESS PERIOD   24   TIME STEP   29

 -------------------------------------------------------------------------------
                             SWR1 OUTPUT PRINT TIMES
                        STRESS PERIOD   24   TIME STEP    29
 --------------- --------------- --------------- --------------- ---------------
      86280.                                                                    
 -------------------------------------------------------------------------------
 
 SOLVING FOR HEAD 
 INITIAL HNEW IS AN EXACT SOLUTION.

 NO OUTPUT CONTROL FOR STRESS PERIOD   24   TIME STEP   30

 -------------------------------------------------------------------------------
                             SWR1 OUTPUT PRINT TIMES
                        STRESS PERIOD   24   TIME STEP    30
 --------------- --------------- --------------- --------------- ---------------
      86400.                                                                    
 -------------------------------------------------------------------------------


                    VOLUMETRIC SURFACE WATER BUDGET FOR ENTIRE MODEL
                    AT END OF TIME STEP    30 IN STRESS PERIOD   24
  -----------------------------------------------------------------------------------

        CUMULATIVE VOLUMES      L**3       RATES FOR THIS TIME STEP      L**3/T
        ------------------                 ------------------------

              IN:                                      IN:
              ---                                      ---
          LATERAL FLOW  =      687492.8125         LATERAL FLOW  =       4.2171E-04
         UNSAT. RUNOFF  =           0.0000        UNSAT. RUNOFF  =           0.0000
              RAINFALL  =      999987.4375             RAINFALL  =       6.1340E-04
           EVAPORATION  =           0.0000          EVAPORATION  =           0.0000
         REACH-AQ FLOW  =           0.0000        REACH-AQ FLOW  =           0.0000
         EXTERNAL FLOW  =           0.0000        EXTERNAL FLOW  =           0.0000
         BOUNDARY FLOW  =           0.0000        BOUNDARY FLOW  =           0.0000
         CONSTANT FLOW  =           0.0000        CONSTANT FLOW  =           0.0000
               STORAGE  =      593621.9375              STORAGE  =          17.3267

               TOTAL IN =     2281102.2500              TOTAL IN =          17.3277

             OUT:                                     OUT:
             ----                                     ----
          LATERAL FLOW  =           0.0000         LATERAL FLOW  =           0.0000
         UNSAT. RUNOFF  =           0.0000        UNSAT. RUNOFF  =           0.0000
              RAINFALL  =           0.0000             RAINFALL  =           0.0000
           EVAPORATION  =           0.0000          EVAPORATION  =           0.0000
         REACH-AQ FLOW  =           0.0000        REACH-AQ FLOW  =           0.0000
         EXTERNAL FLOW  =           0.0000        EXTERNAL FLOW  =           0.0000
         BOUNDARY FLOW  =           0.0000        BOUNDARY FLOW  =           0.0000
         CONSTANT FLOW  =       66182.4766        CONSTANT FLOW  =           2.0113
               STORAGE  =     2214931.2500              STORAGE  =          15.3165

              TOTAL OUT =     2281113.7500             TOTAL OUT =          17.3278

               IN - OUT =         -11.5000              IN - OUT =      -8.0109E-05

    PERCENT DISCREPANCY =           0.00     PERCENT DISCREPANCY =           0.00

1
  VOLUMETRIC BUDGET FOR ENTIRE MODEL AT END OF TIME STEP   30, STRESS PERIOD  24
  ------------------------------------------------------------------------------

     CUMULATIVE VOLUMES      L**3       RATES FOR THIS TIME STEP      L**3/T
     ------------------                 ------------------------

           IN:                                      IN:
           ---                                      ---
             STORAGE =           0.0000               STORAGE =           0.0000
       CONSTANT HEAD =           0.0000         CONSTANT HEAD =           0.0000
         SWR LEAKAGE =           0.0000           SWR LEAKAGE =           0.0000
            SWR GWET =           0.0000              SWR GWET =           0.0000

            TOTAL IN =           0.0000              TOTAL IN =           0.0000

          OUT:                                     OUT:
          ----                                     ----
             STORAGE =           0.0000               STORAGE =           0.0000
       CONSTANT HEAD =           0.0000         CONSTANT HEAD =           0.0000
         SWR LEAKAGE =           0.0000           SWR LEAKAGE =           0.0000
            SWR GWET =           0.0000              SWR GWET =           0.0000

           TOTAL OUT =           0.0000             TOTAL OUT =           0.0000

            IN - OUT =           0.0000              IN - OUT =           0.0000

 PERCENT DISCREPANCY =           0.00     PERCENT DISCREPANCY =           0.00






         TIME SUMMARY AT END OF TIME STEP   30 IN STRESS PERIOD   24
                    SECONDS     MINUTES      HOURS       DAYS        YEARS
                    -----------------------------------------------------------
   TIME STEP LENGTH  120.00      2.0000     3.33333E-02 1.38889E-03 3.80257E-06
 STRESS PERIOD TIME  3600.0      60.000      1.0000     4.16667E-02 1.14077E-04
         TOTAL TIME  86400.      1440.0      24.000      1.0000     2.73785E-03
1
1
                            STRESS PERIOD NO.   25, LENGTH =   518400.0    
                            -----------------------------------------------

                              NUMBER OF TIME STEPS =  4320

                               MULTIPLIER FOR DELT =     1.000

                            INITIAL TIME STEP SIZE =   120.0000    

 ...READING SWR1 PROCESS DATASET 5

 ...READING SWR1 PROCESS DATASET 7B

         2D RAINFALL DATA =   0.00000    

 ...READING SWR1 PROCESS DATASET 9B

   2D LATERAL INFLOW DATA =   0.00000    
 
 SOLVING FOR HEAD 
 INITIAL HNEW IS AN EXACT SOLUTION.

 OUTPUT CONTROL FOR STRESS PERIOD   25   TIME STEP    1
    SAVE BUDGET

 -------------------------------------------------------------------------------
                             SWR1 OUTPUT PRINT TIMES
                        STRESS PERIOD   25   TIME STEP     1
 --------------- --------------- --------------- --------------- ---------------
      86520.                                                                    
 -------------------------------------------------------------------------------
 
 SOLVING FOR HEAD 
 INITIAL HNEW IS AN EXACT SOLUTION.

 NO OUTPUT CONTROL FOR STRESS PERIOD   25   TIME STEP    2

 -------------------------------------------------------------------------------
                             SWR1 OUTPUT PRINT TIMES
                        STRESS PERIOD   25   TIME STEP     2
 --------------- --------------- --------------- --------------- ---------------
      86640.                                                                    
 -------------------------------------------------------------------------------
 
 SOLVING FOR HEAD 
 INITIAL HNEW IS AN EXACT SOLUTION.

 NO OUTPUT CONTROL FOR STRESS PERIOD   25   TIME STEP    3

 -------------------------------------------------------------------------------
                             SWR1 OUTPUT PRINT TIMES
                        STRESS PERIOD   25   TIME STEP     3
 --------------- --------------- --------------- --------------- ---------------
      86760.                                                                    
 -------------------------------------------------------------------------------
 
 SOLVING FOR HEAD 
 INITIAL HNEW IS AN EXACT SOLUTION.

 NO OUTPUT CONTROL FOR STRESS PERIOD   25   TIME STEP    4

 -------------------------------------------------------------------------------
                             SWR1 OUTPUT PRINT TIMES
                        STRESS PERIOD   25   TIME STEP     4
 --------------- --------------- --------------- --------------- ---------------
      86880.                                                                    
 -------------------------------------------------------------------------------
 
 SOLVING FOR HEAD 
 INITIAL HNEW IS AN EXACT SOLUTION.

 NO OUTPUT CONTROL FOR STRESS PERIOD   25   TIME STEP    5

 -------------------------------------------------------------------------------
                             SWR1 OUTPUT PRINT TIMES
                        STRESS PERIOD   25   TIME STEP     5
 --------------- --------------- --------------- --------------- ---------------
      87000.                                                                    
 -------------------------------------------------------------------------------
 
 SOLVING FOR HEAD 
 INITIAL HNEW IS AN EXACT SOLUTION.

 NO OUTPUT CONTROL FOR STRESS PERIOD   25   TIME STEP    6

 -------------------------------------------------------------------------------
                             SWR1 OUTPUT PRINT TIMES
                        STRESS PERIOD   25   TIME STEP     6
 --------------- --------------- --------------- --------------- ---------------
      87120.                                                                    
 -------------------------------------------------------------------------------
 
 SOLVING FOR HEAD 
 INITIAL HNEW IS AN EXACT SOLUTION.

 NO OUTPUT CONTROL FOR STRESS PERIOD   25   TIME STEP    7

 -------------------------------------------------------------------------------
                             SWR1 OUTPUT PRINT TIMES
                        STRESS PERIOD   25   TIME STEP     7
 --------------- --------------- --------------- --------------- ---------------
      87240.                                                                    
 -------------------------------------------------------------------------------
 
 SOLVING FOR HEAD 
 INITIAL HNEW IS AN EXACT SOLUTION.

 NO OUTPUT CONTROL FOR STRESS PERIOD   25   TIME STEP    8

 -------------------------------------------------------------------------------
                             SWR1 OUTPUT PRINT TIMES
                        STRESS PERIOD   25   TIME STEP     8
 --------------- --------------- --------------- --------------- ---------------
      87360.                                                                    
 -------------------------------------------------------------------------------
 
 SOLVING FOR HEAD 
 INITIAL HNEW IS AN EXACT SOLUTION.

 NO OUTPUT CONTROL FOR STRESS PERIOD   25   TIME STEP    9

 -------------------------------------------------------------------------------
                             SWR1 OUTPUT PRINT TIMES
                        STRESS PERIOD   25   TIME STEP     9
 --------------- --------------- --------------- --------------- ---------------
      87480.                                                                    
 -------------------------------------------------------------------------------
 
 SOLVING FOR HEAD 
 INITIAL HNEW IS AN EXACT SOLUTION.

 NO OUTPUT CONTROL FOR STRESS PERIOD   25   TIME STEP   10

 -------------------------------------------------------------------------------
                             SWR1 OUTPUT PRINT TIMES
                        STRESS PERIOD   25   TIME STEP    10
 --------------- --------------- --------------- --------------- ---------------
      87600.                                                                    
 -------------------------------------------------------------------------------
 
 SOLVING FOR HEAD 
 INITIAL HNEW IS AN EXACT SOLUTION.

 NO OUTPUT CONTROL FOR STRESS PERIOD   25   TIME STEP   11

 -------------------------------------------------------------------------------
                             SWR1 OUTPUT PRINT TIMES
                        STRESS PERIOD   25   TIME STEP    11
 --------------- --------------- --------------- --------------- ---------------
      87720.                                                                    
 -------------------------------------------------------------------------------
 
 SOLVING FOR HEAD 
 INITIAL HNEW IS AN EXACT SOLUTION.

 NO OUTPUT CONTROL FOR STRESS PERIOD   25   TIME STEP   12

 -------------------------------------------------------------------------------
                             SWR1 OUTPUT PRINT TIMES
                        STRESS PERIOD   25   TIME STEP    12
 --------------- --------------- --------------- --------------- ---------------
      87840.                                                                    
 -------------------------------------------------------------------------------
 
 SOLVING FOR HEAD 
 INITIAL HNEW IS AN EXACT SOLUTION.

 NO OUTPUT CONTROL FOR STRESS PERIOD   25   TIME STEP   13

 -------------------------------------------------------------------------------
                             SWR1 OUTPUT PRINT TIMES
                        STRESS PERIOD   25   TIME STEP    13
 --------------- --------------- --------------- --------------- ---------------
      87960.                                                                    
 -------------------------------------------------------------------------------
 
 SOLVING FOR HEAD 
 INITIAL HNEW IS AN EXACT SOLUTION.

 NO OUTPUT CONTROL FOR STRESS PERIOD   25   TIME STEP   14

 -------------------------------------------------------------------------------
                             SWR1 OUTPUT PRINT TIMES
                        STRESS PERIOD   25   TIME STEP    14
 --------------- --------------- --------------- --------------- ---------------
      88080.                                                                    
 -------------------------------------------------------------------------------
 
 SOLVING FOR HEAD 
 INITIAL HNEW IS AN EXACT SOLUTION.

 NO OUTPUT CONTROL FOR STRESS PERIOD   25   TIME STEP   15

 -------------------------------------------------------------------------------
                             SWR1 OUTPUT PRINT TIMES
                        STRESS PERIOD   25   TIME STEP    15
 --------------- --------------- --------------- --------------- ---------------
      88200.                                                                    
 -------------------------------------------------------------------------------
 
 SOLVING FOR HEAD 
 INITIAL HNEW IS AN EXACT SOLUTION.

 NO OUTPUT CONTROL FOR STRESS PERIOD   25   TIME STEP   16

 -------------------------------------------------------------------------------
                             SWR1 OUTPUT PRINT TIMES
                        STRESS PERIOD   25   TIME STEP    16
 --------------- --------------- --------------- --------------- ---------------
      88320.                                                                    
 -------------------------------------------------------------------------------
 
 SOLVING FOR HEAD 
 INITIAL HNEW IS AN EXACT SOLUTION.

 NO OUTPUT CONTROL FOR STRESS PERIOD   25   TIME STEP   17

 -------------------------------------------------------------------------------
                             SWR1 OUTPUT PRINT TIMES
                        STRESS PERIOD   25   TIME STEP    17
 --------------- --------------- --------------- --------------- ---------------
      88440.                                                                    
 -------------------------------------------------------------------------------
 
 SOLVING FOR HEAD 
 INITIAL HNEW IS AN EXACT SOLUTION.

 NO OUTPUT CONTROL FOR STRESS PERIOD   25   TIME STEP   18

 -------------------------------------------------------------------------------
                             SWR1 OUTPUT PRINT TIMES
                        STRESS PERIOD   25   TIME STEP    18
 --------------- --------------- --------------- --------------- ---------------
      88560.                                                                    
 -------------------------------------------------------------------------------
 
 SOLVING FOR HEAD 
 INITIAL HNEW IS AN EXACT SOLUTION.

 NO OUTPUT CONTROL FOR STRESS PERIOD   25   TIME STEP   19

 -------------------------------------------------------------------------------
                             SWR1 OUTPUT PRINT TIMES
                        STRESS PERIOD   25   TIME STEP    19
 --------------- --------------- --------------- --------------- ---------------
      88680.                                                                    
 -------------------------------------------------------------------------------
 
 SOLVING FOR HEAD 
 INITIAL HNEW IS AN EXACT SOLUTION.

 NO OUTPUT CONTROL FOR STRESS PERIOD   25   TIME STEP   20

 -------------------------------------------------------------------------------
                             SWR1 OUTPUT PRINT TIMES
                        STRESS PERIOD   25   TIME STEP    20
 --------------- --------------- --------------- --------------- ---------------
      88800.                                                                    
 -------------------------------------------------------------------------------
 
 SOLVING FOR HEAD 
 INITIAL HNEW IS AN EXACT SOLUTION.

 NO OUTPUT CONTROL FOR STRESS PERIOD   25   TIME STEP   21

 -------------------------------------------------------------------------------
                             SWR1 OUTPUT PRINT TIMES
                        STRESS PERIOD   25   TIME STEP    21
 --------------- --------------- --------------- --------------- ---------------
      88920.                                                                    
 -------------------------------------------------------------------------------
 
 SOLVING FOR HEAD 
 INITIAL HNEW IS AN EXACT SOLUTION.

 NO OUTPUT CONTROL FOR STRESS PERIOD   25   TIME STEP   22

 -------------------------------------------------------------------------------
                             SWR1 OUTPUT PRINT TIMES
                        STRESS PERIOD   25   TIME STEP    22
 --------------- --------------- --------------- --------------- ---------------
      89040.                                                                    
 -------------------------------------------------------------------------------
 
 SOLVING FOR HEAD 
 INITIAL HNEW IS AN EXACT SOLUTION.

 NO OUTPUT CONTROL FOR STRESS PERIOD   25   TIME STEP   23

 -------------------------------------------------------------------------------
                             SWR1 OUTPUT PRINT TIMES
                        STRESS PERIOD   25   TIME STEP    23
 --------------- --------------- --------------- --------------- ---------------
      89160.                                                                    
 -------------------------------------------------------------------------------
 
 SOLVING FOR HEAD 
 INITIAL HNEW IS AN EXACT SOLUTION.

 NO OUTPUT CONTROL FOR STRESS PERIOD   25   TIME STEP   24

 -------------------------------------------------------------------------------
                             SWR1 OUTPUT PRINT TIMES
                        STRESS PERIOD   25   TIME STEP    24
 --------------- --------------- --------------- --------------- ---------------
      89280.                                                                    
 -------------------------------------------------------------------------------
 
 SOLVING FOR HEAD 
 INITIAL HNEW IS AN EXACT SOLUTION.

 NO OUTPUT CONTROL FOR STRESS PERIOD   25   TIME STEP   25

 -------------------------------------------------------------------------------
                             SWR1 OUTPUT PRINT TIMES
                        STRESS PERIOD   25   TIME STEP    25
 --------------- --------------- --------------- --------------- ---------------
      89400.                                                                    
 -------------------------------------------------------------------------------
 
 SOLVING FOR HEAD 
 INITIAL HNEW IS AN EXACT SOLUTION.

 NO OUTPUT CONTROL FOR STRESS PERIOD   25   TIME STEP   26

 -------------------------------------------------------------------------------
                             SWR1 OUTPUT PRINT TIMES
                        STRESS PERIOD   25   TIME STEP    26
 --------------- --------------- --------------- --------------- ---------------
      89520.                                                                    
 -------------------------------------------------------------------------------
 
 SOLVING FOR HEAD 
 INITIAL HNEW IS AN EXACT SOLUTION.

 NO OUTPUT CONTROL FOR STRESS PERIOD   25   TIME STEP   27

 -------------------------------------------------------------------------------
                             SWR1 OUTPUT PRINT TIMES
                        STRESS PERIOD   25   TIME STEP    27
 --------------- --------------- --------------- --------------- ---------------
      89640.                                                                    
 -------------------------------------------------------------------------------
 
 SOLVING FOR HEAD 
 INITIAL HNEW IS AN EXACT SOLUTION.

 NO OUTPUT CONTROL FOR STRESS PERIOD   25   TIME STEP   28

 -------------------------------------------------------------------------------
                             SWR1 OUTPUT PRINT TIMES
                        STRESS PERIOD   25   TIME STEP    28
 --------------- --------------- --------------- --------------- ---------------
      89760.                                                                    
 -------------------------------------------------------------------------------
 
 SOLVING FOR HEAD 
 INITIAL HNEW IS AN EXACT SOLUTION.

 NO OUTPUT CONTROL FOR STRESS PERIOD   25   TIME STEP   29

 -------------------------------------------------------------------------------
                             SWR1 OUTPUT PRINT TIMES
                        STRESS PERIOD   25   TIME STEP    29
 --------------- --------------- --------------- --------------- ---------------
      89880.                                                                    
 -------------------------------------------------------------------------------
 
 SOLVING FOR HEAD 
 INITIAL HNEW IS AN EXACT SOLUTION.

 NO OUTPUT CONTROL FOR STRESS PERIOD   25   TIME STEP   30

 -------------------------------------------------------------------------------
                             SWR1 OUTPUT PRINT TIMES
                        STRESS PERIOD   25   TIME STEP    30
 --------------- --------------- --------------- --------------- ---------------
      90000.                                                                    
 -------------------------------------------------------------------------------
 
 SOLVING FOR HEAD 
 INITIAL HNEW IS AN EXACT SOLUTION.

 NO OUTPUT CONTROL FOR STRESS PERIOD   25   TIME STEP   31

 -------------------------------------------------------------------------------
                             SWR1 OUTPUT PRINT TIMES
                        STRESS PERIOD   25   TIME STEP    31
 --------------- --------------- --------------- --------------- ---------------
      90120.                                                                    
 -------------------------------------------------------------------------------
 
 SOLVING FOR HEAD 
 INITIAL HNEW IS AN EXACT SOLUTION.

 NO OUTPUT CONTROL FOR STRESS PERIOD   25   TIME STEP   32

 -------------------------------------------------------------------------------
                             SWR1 OUTPUT PRINT TIMES
                        STRESS PERIOD   25   TIME STEP    32
 --------------- --------------- --------------- --------------- ---------------
      90240.                                                                    
 -------------------------------------------------------------------------------
 
 SOLVING FOR HEAD 
 INITIAL HNEW IS AN EXACT SOLUTION.

 NO OUTPUT CONTROL FOR STRESS PERIOD   25   TIME STEP   33

 -------------------------------------------------------------------------------
                             SWR1 OUTPUT PRINT TIMES
                        STRESS PERIOD   25   TIME STEP    33
 --------------- --------------- --------------- --------------- ---------------
      90360.                                                                    
 -------------------------------------------------------------------------------
 
 SOLVING FOR HEAD 
 INITIAL HNEW IS AN EXACT SOLUTION.

 NO OUTPUT CONTROL FOR STRESS PERIOD   25   TIME STEP   34

 -------------------------------------------------------------------------------
                             SWR1 OUTPUT PRINT TIMES
                        STRESS PERIOD   25   TIME STEP    34
 --------------- --------------- --------------- --------------- ---------------
      90480.                                                                    
 -------------------------------------------------------------------------------
 
 SOLVING FOR HEAD 
 INITIAL HNEW IS AN EXACT SOLUTION.

 NO OUTPUT CONTROL FOR STRESS PERIOD   25   TIME STEP   35

 -------------------------------------------------------------------------------
                             SWR1 OUTPUT PRINT TIMES
                        STRESS PERIOD   25   TIME STEP    35
 --------------- --------------- --------------- --------------- ---------------
      90600.                                                                    
 -------------------------------------------------------------------------------
 
 SOLVING FOR HEAD 
 INITIAL HNEW IS AN EXACT SOLUTION.

 NO OUTPUT CONTROL FOR STRESS PERIOD   25   TIME STEP   36

 -------------------------------------------------------------------------------
                             SWR1 OUTPUT PRINT TIMES
                        STRESS PERIOD   25   TIME STEP    36
 --------------- --------------- --------------- --------------- ---------------
      90720.                                                                    
 -------------------------------------------------------------------------------
 
 SOLVING FOR HEAD 
 INITIAL HNEW IS AN EXACT SOLUTION.

 NO OUTPUT CONTROL FOR STRESS PERIOD   25   TIME STEP   37

 -------------------------------------------------------------------------------
                             SWR1 OUTPUT PRINT TIMES
                        STRESS PERIOD   25   TIME STEP    37
 --------------- --------------- --------------- --------------- ---------------
      90840.                                                                    
 -------------------------------------------------------------------------------
 
 SOLVING FOR HEAD 
 INITIAL HNEW IS AN EXACT SOLUTION.

 NO OUTPUT CONTROL FOR STRESS PERIOD   25   TIME STEP   38

 -------------------------------------------------------------------------------
                             SWR1 OUTPUT PRINT TIMES
                        STRESS PERIOD   25   TIME STEP    38
 --------------- --------------- --------------- --------------- ---------------
      90960.                                                                    
 -------------------------------------------------------------------------------
 
 SOLVING FOR HEAD 
 INITIAL HNEW IS AN EXACT SOLUTION.

 NO OUTPUT CONTROL FOR STRESS PERIOD   25   TIME STEP   39

 -------------------------------------------------------------------------------
                             SWR1 OUTPUT PRINT TIMES
                        STRESS PERIOD   25   TIME STEP    39
 --------------- --------------- --------------- --------------- ---------------
      91080.                                                                    
 -------------------------------------------------------------------------------
 
 SOLVING FOR HEAD 
 INITIAL HNEW IS AN EXACT SOLUTION.

 NO OUTPUT CONTROL FOR STRESS PERIOD   25   TIME STEP   40

 -------------------------------------------------------------------------------
                             SWR1 OUTPUT PRINT TIMES
                        STRESS PERIOD   25   TIME STEP    40
 --------------- --------------- --------------- --------------- ---------------
      91200.                                                                    
 -------------------------------------------------------------------------------
 
 SOLVING FOR HEAD 
 INITIAL HNEW IS AN EXACT SOLUTION.

 NO OUTPUT CONTROL FOR STRESS PERIOD   25   TIME STEP   41

 -------------------------------------------------------------------------------
                             SWR1 OUTPUT PRINT TIMES
                        STRESS PERIOD   25   TIME STEP    41
 --------------- --------------- --------------- --------------- ---------------
      91320.                                                                    
 -------------------------------------------------------------------------------
 
 SOLVING FOR HEAD 
 INITIAL HNEW IS AN EXACT SOLUTION.

 NO OUTPUT CONTROL FOR STRESS PERIOD   25   TIME STEP   42

 -------------------------------------------------------------------------------
                             SWR1 OUTPUT PRINT TIMES
                        STRESS PERIOD   25   TIME STEP    42
 --------------- --------------- --------------- --------------- ---------------
      91440.                                                                    
 -------------------------------------------------------------------------------
 
 SOLVING FOR HEAD 
 INITIAL HNEW IS AN EXACT SOLUTION.

 NO OUTPUT CONTROL FOR STRESS PERIOD   25   TIME STEP   43

 -------------------------------------------------------------------------------
                             SWR1 OUTPUT PRINT TIMES
                        STRESS PERIOD   25   TIME STEP    43
 --------------- --------------- --------------- --------------- ---------------
      91560.                                                                    
 -------------------------------------------------------------------------------
 
 SOLVING FOR HEAD 
 INITIAL HNEW IS AN EXACT SOLUTION.

 NO OUTPUT CONTROL FOR STRESS PERIOD   25   TIME STEP   44

 -------------------------------------------------------------------------------
                             SWR1 OUTPUT PRINT TIMES
                        STRESS PERIOD   25   TIME STEP    44
 --------------- --------------- --------------- --------------- ---------------
      91680.                                                                    
 -------------------------------------------------------------------------------
 
 SOLVING FOR HEAD 
 INITIAL HNEW IS AN EXACT SOLUTION.

 NO OUTPUT CONTROL FOR STRESS PERIOD   25   TIME STEP   45

 -------------------------------------------------------------------------------
                             SWR1 OUTPUT PRINT TIMES
                        STRESS PERIOD   25   TIME STEP    45
 --------------- --------------- --------------- --------------- ---------------
      91800.                                                                    
 -------------------------------------------------------------------------------
 
 SOLVING FOR HEAD 
 INITIAL HNEW IS AN EXACT SOLUTION.

 NO OUTPUT CONTROL FOR STRESS PERIOD   25   TIME STEP   46

 -------------------------------------------------------------------------------
                             SWR1 OUTPUT PRINT TIMES
                        STRESS PERIOD   25   TIME STEP    46
 --------------- --------------- --------------- --------------- ---------------
      91920.                                                                    
 -------------------------------------------------------------------------------
 
 SOLVING FOR HEAD 
 INITIAL HNEW IS AN EXACT SOLUTION.

 NO OUTPUT CONTROL FOR STRESS PERIOD   25   TIME STEP   47

 -------------------------------------------------------------------------------
                             SWR1 OUTPUT PRINT TIMES
                        STRESS PERIOD   25   TIME STEP    47
 --------------- --------------- --------------- --------------- ---------------
      92040.                                                                    
 -------------------------------------------------------------------------------
 
 SOLVING FOR HEAD 
 INITIAL HNEW IS AN EXACT SOLUTION.

 NO OUTPUT CONTROL FOR STRESS PERIOD   25   TIME STEP   48

 -------------------------------------------------------------------------------
                             SWR1 OUTPUT PRINT TIMES
                        STRESS PERIOD   25   TIME STEP    48
 --------------- --------------- --------------- --------------- ---------------
      92160.                                                                    
 -------------------------------------------------------------------------------
 
 SOLVING FOR HEAD 
 INITIAL HNEW IS AN EXACT SOLUTION.

 NO OUTPUT CONTROL FOR STRESS PERIOD   25   TIME STEP   49

 -------------------------------------------------------------------------------
                             SWR1 OUTPUT PRINT TIMES
                        STRESS PERIOD   25   TIME STEP    49
 --------------- --------------- --------------- --------------- ---------------
      92280.                                                                    
 -------------------------------------------------------------------------------
 
 SOLVING FOR HEAD 
 INITIAL HNEW IS AN EXACT SOLUTION.

 NO OUTPUT CONTROL FOR STRESS PERIOD   25   TIME STEP   50

 -------------------------------------------------------------------------------
                             SWR1 OUTPUT PRINT TIMES
                        STRESS PERIOD   25   TIME STEP    50
 --------------- --------------- --------------- --------------- ---------------
      92400.                                                                    
 -------------------------------------------------------------------------------
 
 SOLVING FOR HEAD 
 INITIAL HNEW IS AN EXACT SOLUTION.

 NO OUTPUT CONTROL FOR STRESS PERIOD   25   TIME STEP   51

 -------------------------------------------------------------------------------
                             SWR1 OUTPUT PRINT TIMES
                        STRESS PERIOD   25   TIME STEP    51
 --------------- --------------- --------------- --------------- ---------------
      92520.                                                                    
 -------------------------------------------------------------------------------
 
 SOLVING FOR HEAD 
 INITIAL HNEW IS AN EXACT SOLUTION.

 NO OUTPUT CONTROL FOR STRESS PERIOD   25   TIME STEP   52

 -------------------------------------------------------------------------------
                             SWR1 OUTPUT PRINT TIMES
                        STRESS PERIOD   25   TIME STEP    52
 --------------- --------------- --------------- --------------- ---------------
      92640.                                                                    
 -------------------------------------------------------------------------------
 
 SOLVING FOR HEAD 
 INITIAL HNEW IS AN EXACT SOLUTION.

 NO OUTPUT CONTROL FOR STRESS PERIOD   25   TIME STEP   53

 -------------------------------------------------------------------------------
                             SWR1 OUTPUT PRINT TIMES
                        STRESS PERIOD   25   TIME STEP    53
 --------------- --------------- --------------- --------------- ---------------
      92760.                                                                    
 -------------------------------------------------------------------------------
 
 SOLVING FOR HEAD 
 INITIAL HNEW IS AN EXACT SOLUTION.

 NO OUTPUT CONTROL FOR STRESS PERIOD   25   TIME STEP   54

 -------------------------------------------------------------------------------
                             SWR1 OUTPUT PRINT TIMES
                        STRESS PERIOD   25   TIME STEP    54
 --------------- --------------- --------------- --------------- ---------------
      92880.                                                                    
 -------------------------------------------------------------------------------
 
 SOLVING FOR HEAD 
 INITIAL HNEW IS AN EXACT SOLUTION.

 NO OUTPUT CONTROL FOR STRESS PERIOD   25   TIME STEP   55

 -------------------------------------------------------------------------------
                             SWR1 OUTPUT PRINT TIMES
                        STRESS PERIOD   25   TIME STEP    55
 --------------- --------------- --------------- --------------- ---------------
      93000.                                                                    
 -------------------------------------------------------------------------------
 
 SOLVING FOR HEAD 
 INITIAL HNEW IS AN EXACT SOLUTION.

 NO OUTPUT CONTROL FOR STRESS PERIOD   25   TIME STEP   56

 -------------------------------------------------------------------------------
                             SWR1 OUTPUT PRINT TIMES
                        STRESS PERIOD   25   TIME STEP    56
 --------------- --------------- --------------- --------------- ---------------
      93120.                                                                    
 -------------------------------------------------------------------------------
 
 SOLVING FOR HEAD 
 INITIAL HNEW IS AN EXACT SOLUTION.

 NO OUTPUT CONTROL FOR STRESS PERIOD   25   TIME STEP   57

 -------------------------------------------------------------------------------
                             SWR1 OUTPUT PRINT TIMES
                        STRESS PERIOD   25   TIME STEP    57
 --------------- --------------- --------------- --------------- ---------------
      93240.                                                                    
 -------------------------------------------------------------------------------
 
 SOLVING FOR HEAD 
 INITIAL HNEW IS AN EXACT SOLUTION.

 NO OUTPUT CONTROL FOR STRESS PERIOD   25   TIME STEP   58

 -------------------------------------------------------------------------------
                             SWR1 OUTPUT PRINT TIMES
                        STRESS PERIOD   25   TIME STEP    58
 --------------- --------------- --------------- --------------- ---------------
      93360.                                                                    
 -------------------------------------------------------------------------------
 
 SOLVING FOR HEAD 
 INITIAL HNEW IS AN EXACT SOLUTION.

 NO OUTPUT CONTROL FOR STRESS PERIOD   25   TIME STEP   59

 -------------------------------------------------------------------------------
                             SWR1 OUTPUT PRINT TIMES
                        STRESS PERIOD   25   TIME STEP    59
 --------------- --------------- --------------- --------------- ---------------
      93480.                                                                    
 -------------------------------------------------------------------------------
 
 SOLVING FOR HEAD 
 INITIAL HNEW IS AN EXACT SOLUTION.

 NO OUTPUT CONTROL FOR STRESS PERIOD   25   TIME STEP   60

 -------------------------------------------------------------------------------
                             SWR1 OUTPUT PRINT TIMES
                        STRESS PERIOD   25   TIME STEP    60
 --------------- --------------- --------------- --------------- ---------------
      93600.                                                                    
 -------------------------------------------------------------------------------
 
 SOLVING FOR HEAD 
 INITIAL HNEW IS AN EXACT SOLUTION.

 NO OUTPUT CONTROL FOR STRESS PERIOD   25   TIME STEP   61

 -------------------------------------------------------------------------------
                             SWR1 OUTPUT PRINT TIMES
                        STRESS PERIOD   25   TIME STEP    61
 --------------- --------------- --------------- --------------- ---------------
      93720.                                                                    
 -------------------------------------------------------------------------------
 
 SOLVING FOR HEAD 
 INITIAL HNEW IS AN EXACT SOLUTION.

 NO OUTPUT CONTROL FOR STRESS PERIOD   25   TIME STEP   62

 -------------------------------------------------------------------------------
                             SWR1 OUTPUT PRINT TIMES
                        STRESS PERIOD   25   TIME STEP    62
 --------------- --------------- --------------- --------------- ---------------
      93840.                                                                    
 -------------------------------------------------------------------------------
 
 SOLVING FOR HEAD 
 INITIAL HNEW IS AN EXACT SOLUTION.

 NO OUTPUT CONTROL FOR STRESS PERIOD   25   TIME STEP   63

 -------------------------------------------------------------------------------
                             SWR1 OUTPUT PRINT TIMES
                        STRESS PERIOD   25   TIME STEP    63
 --------------- --------------- --------------- --------------- ---------------
      93960.                                                                    
 -------------------------------------------------------------------------------
 
 SOLVING FOR HEAD 
 INITIAL HNEW IS AN EXACT SOLUTION.

 NO OUTPUT CONTROL FOR STRESS PERIOD   25   TIME STEP   64

 -------------------------------------------------------------------------------
                             SWR1 OUTPUT PRINT TIMES
                        STRESS PERIOD   25   TIME STEP    64
 --------------- --------------- --------------- --------------- ---------------
      94080.                                                                    
 -------------------------------------------------------------------------------
 
 SOLVING FOR HEAD 
 INITIAL HNEW IS AN EXACT SOLUTION.

 NO OUTPUT CONTROL FOR STRESS PERIOD   25   TIME STEP   65

 -------------------------------------------------------------------------------
                             SWR1 OUTPUT PRINT TIMES
                        STRESS PERIOD   25   TIME STEP    65
 --------------- --------------- --------------- --------------- ---------------
      94200.                                                                    
 -------------------------------------------------------------------------------
 
 SOLVING FOR HEAD 
 INITIAL HNEW IS AN EXACT SOLUTION.

 NO OUTPUT CONTROL FOR STRESS PERIOD   25   TIME STEP   66

 -------------------------------------------------------------------------------
                             SWR1 OUTPUT PRINT TIMES
                        STRESS PERIOD   25   TIME STEP    66
 --------------- --------------- --------------- --------------- ---------------
      94320.                                                                    
 -------------------------------------------------------------------------------
 
 SOLVING FOR HEAD 
 INITIAL HNEW IS AN EXACT SOLUTION.

 NO OUTPUT CONTROL FOR STRESS PERIOD   25   TIME STEP   67

 -------------------------------------------------------------------------------
                             SWR1 OUTPUT PRINT TIMES
                        STRESS PERIOD   25   TIME STEP    67
 --------------- --------------- --------------- --------------- ---------------
      94440.                                                                    
 -------------------------------------------------------------------------------
 
 SOLVING FOR HEAD 
 INITIAL HNEW IS AN EXACT SOLUTION.

 NO OUTPUT CONTROL FOR STRESS PERIOD   25   TIME STEP   68

 -------------------------------------------------------------------------------
                             SWR1 OUTPUT PRINT TIMES
                        STRESS PERIOD   25   TIME STEP    68
 --------------- --------------- --------------- --------------- ---------------
      94560.                                                                    
 -------------------------------------------------------------------------------
 
 SOLVING FOR HEAD 
 INITIAL HNEW IS AN EXACT SOLUTION.

 NO OUTPUT CONTROL FOR STRESS PERIOD   25   TIME STEP   69

 -------------------------------------------------------------------------------
                             SWR1 OUTPUT PRINT TIMES
                        STRESS PERIOD   25   TIME STEP    69
 --------------- --------------- --------------- --------------- ---------------
      94680.                                                                    
 -------------------------------------------------------------------------------
 
 SOLVING FOR HEAD 
 INITIAL HNEW IS AN EXACT SOLUTION.

 NO OUTPUT CONTROL FOR STRESS PERIOD   25   TIME STEP   70

 -------------------------------------------------------------------------------
                             SWR1 OUTPUT PRINT TIMES
                        STRESS PERIOD   25   TIME STEP    70
 --------------- --------------- --------------- --------------- ---------------
      94800.                                                                    
 -------------------------------------------------------------------------------
 
 SOLVING FOR HEAD 
 INITIAL HNEW IS AN EXACT SOLUTION.

 NO OUTPUT CONTROL FOR STRESS PERIOD   25   TIME STEP   71

 -------------------------------------------------------------------------------
                             SWR1 OUTPUT PRINT TIMES
                        STRESS PERIOD   25   TIME STEP    71
 --------------- --------------- --------------- --------------- ---------------
      94920.                                                                    
 -------------------------------------------------------------------------------
 
 SOLVING FOR HEAD 
 INITIAL HNEW IS AN EXACT SOLUTION.

 NO OUTPUT CONTROL FOR STRESS PERIOD   25   TIME STEP   72

 -------------------------------------------------------------------------------
                             SWR1 OUTPUT PRINT TIMES
                        STRESS PERIOD   25   TIME STEP    72
 --------------- --------------- --------------- --------------- ---------------
      95040.                                                                    
 -------------------------------------------------------------------------------
 
 SOLVING FOR HEAD 
 INITIAL HNEW IS AN EXACT SOLUTION.

 NO OUTPUT CONTROL FOR STRESS PERIOD   25   TIME STEP   73

 -------------------------------------------------------------------------------
                             SWR1 OUTPUT PRINT TIMES
                        STRESS PERIOD   25   TIME STEP    73
 --------------- --------------- --------------- --------------- ---------------
      95160.                                                                    
 -------------------------------------------------------------------------------
 
 SOLVING FOR HEAD 
 INITIAL HNEW IS AN EXACT SOLUTION.

 NO OUTPUT CONTROL FOR STRESS PERIOD   25   TIME STEP   74

 -------------------------------------------------------------------------------
                             SWR1 OUTPUT PRINT TIMES
                        STRESS PERIOD   25   TIME STEP    74
 --------------- --------------- --------------- --------------- ---------------
      95280.                                                                    
 -------------------------------------------------------------------------------
 
 SOLVING FOR HEAD 
 INITIAL HNEW IS AN EXACT SOLUTION.

 NO OUTPUT CONTROL FOR STRESS PERIOD   25   TIME STEP   75

 -------------------------------------------------------------------------------
                             SWR1 OUTPUT PRINT TIMES
                        STRESS PERIOD   25   TIME STEP    75
 --------------- --------------- --------------- --------------- ---------------
      95400.                                                                    
 -------------------------------------------------------------------------------
 
 SOLVING FOR HEAD 
 INITIAL HNEW IS AN EXACT SOLUTION.

 NO OUTPUT CONTROL FOR STRESS PERIOD   25   TIME STEP   76

 -------------------------------------------------------------------------------
                             SWR1 OUTPUT PRINT TIMES
                        STRESS PERIOD   25   TIME STEP    76
 --------------- --------------- --------------- --------------- ---------------
      95520.                                                                    
 -------------------------------------------------------------------------------
 
 SOLVING FOR HEAD 
 INITIAL HNEW IS AN EXACT SOLUTION.

 NO OUTPUT CONTROL FOR STRESS PERIOD   25   TIME STEP   77

 -------------------------------------------------------------------------------
                             SWR1 OUTPUT PRINT TIMES
                        STRESS PERIOD   25   TIME STEP    77
 --------------- --------------- --------------- --------------- ---------------
      95640.                                                                    
 -------------------------------------------------------------------------------
 
 SOLVING FOR HEAD 
 INITIAL HNEW IS AN EXACT SOLUTION.

 NO OUTPUT CONTROL FOR STRESS PERIOD   25   TIME STEP   78

 -------------------------------------------------------------------------------
                             SWR1 OUTPUT PRINT TIMES
                        STRESS PERIOD   25   TIME STEP    78
 --------------- --------------- --------------- --------------- ---------------
      95760.                                                                    
 -------------------------------------------------------------------------------
 
 SOLVING FOR HEAD 
 INITIAL HNEW IS AN EXACT SOLUTION.

 NO OUTPUT CONTROL FOR STRESS PERIOD   25   TIME STEP   79

 -------------------------------------------------------------------------------
                             SWR1 OUTPUT PRINT TIMES
                        STRESS PERIOD   25   TIME STEP    79
 --------------- --------------- --------------- --------------- ---------------
      95880.                                                                    
 -------------------------------------------------------------------------------
 
 SOLVING FOR HEAD 
 INITIAL HNEW IS AN EXACT SOLUTION.

 NO OUTPUT CONTROL FOR STRESS PERIOD   25   TIME STEP   80

 -------------------------------------------------------------------------------
                             SWR1 OUTPUT PRINT TIMES
                        STRESS PERIOD   25   TIME STEP    80
 --------------- --------------- --------------- --------------- ---------------
      96000.                                                                    
 -------------------------------------------------------------------------------
 
 SOLVING FOR HEAD 
 INITIAL HNEW IS AN EXACT SOLUTION.

 NO OUTPUT CONTROL FOR STRESS PERIOD   25   TIME STEP   81

 -------------------------------------------------------------------------------
                             SWR1 OUTPUT PRINT TIMES
                        STRESS PERIOD   25   TIME STEP    81
 --------------- --------------- --------------- --------------- ---------------
      96120.                                                                    
 -------------------------------------------------------------------------------
 
 SOLVING FOR HEAD 
 INITIAL HNEW IS AN EXACT SOLUTION.

 NO OUTPUT CONTROL FOR STRESS PERIOD   25   TIME STEP   82

 -------------------------------------------------------------------------------
                             SWR1 OUTPUT PRINT TIMES
                        STRESS PERIOD   25   TIME STEP    82
 --------------- --------------- --------------- --------------- ---------------
      96240.                                                                    
 -------------------------------------------------------------------------------
 
 SOLVING FOR HEAD 
 INITIAL HNEW IS AN EXACT SOLUTION.

 NO OUTPUT CONTROL FOR STRESS PERIOD   25   TIME STEP   83

 -------------------------------------------------------------------------------
                             SWR1 OUTPUT PRINT TIMES
                        STRESS PERIOD   25   TIME STEP    83
 --------------- --------------- --------------- --------------- ---------------
      96360.                                                                    
 -------------------------------------------------------------------------------
 
 SOLVING FOR HEAD 
 INITIAL HNEW IS AN EXACT SOLUTION.

 NO OUTPUT CONTROL FOR STRESS PERIOD   25   TIME STEP   84

 -------------------------------------------------------------------------------
                             SWR1 OUTPUT PRINT TIMES
                        STRESS PERIOD   25   TIME STEP    84
 --------------- --------------- --------------- --------------- ---------------
      96480.                                                                    
 -------------------------------------------------------------------------------
 
 SOLVING FOR HEAD 
 INITIAL HNEW IS AN EXACT SOLUTION.

 NO OUTPUT CONTROL FOR STRESS PERIOD   25   TIME STEP   85

 -------------------------------------------------------------------------------
                             SWR1 OUTPUT PRINT TIMES
                        STRESS PERIOD   25   TIME STEP    85
 --------------- --------------- --------------- --------------- ---------------
      96600.                                                                    
 -------------------------------------------------------------------------------
 
 SOLVING FOR HEAD 
 INITIAL HNEW IS AN EXACT SOLUTION.

 NO OUTPUT CONTROL FOR STRESS PERIOD   25   TIME STEP   86

 -------------------------------------------------------------------------------
                             SWR1 OUTPUT PRINT TIMES
                        STRESS PERIOD   25   TIME STEP    86
 --------------- --------------- --------------- --------------- ---------------
      96720.                                                                    
 -------------------------------------------------------------------------------
 
 SOLVING FOR HEAD 
 INITIAL HNEW IS AN EXACT SOLUTION.

 NO OUTPUT CONTROL FOR STRESS PERIOD   25   TIME STEP   87

 -------------------------------------------------------------------------------
                             SWR1 OUTPUT PRINT TIMES
                        STRESS PERIOD   25   TIME STEP    87
 --------------- --------------- --------------- --------------- ---------------
      96840.                                                                    
 -------------------------------------------------------------------------------
 
 SOLVING FOR HEAD 
 INITIAL HNEW IS AN EXACT SOLUTION.

 NO OUTPUT CONTROL FOR STRESS PERIOD   25   TIME STEP   88

 -------------------------------------------------------------------------------
                             SWR1 OUTPUT PRINT TIMES
                        STRESS PERIOD   25   TIME STEP    88
 --------------- --------------- --------------- --------------- ---------------
      96960.                                                                    
 -------------------------------------------------------------------------------
 
 SOLVING FOR HEAD 
 INITIAL HNEW IS AN EXACT SOLUTION.

 NO OUTPUT CONTROL FOR STRESS PERIOD   25   TIME STEP   89

 -------------------------------------------------------------------------------
                             SWR1 OUTPUT PRINT TIMES
                        STRESS PERIOD   25   TIME STEP    89
 --------------- --------------- --------------- --------------- ---------------
      97080.                                                                    
 -------------------------------------------------------------------------------
 
 SOLVING FOR HEAD 
 INITIAL HNEW IS AN EXACT SOLUTION.

 NO OUTPUT CONTROL FOR STRESS PERIOD   25   TIME STEP   90

 -------------------------------------------------------------------------------
                             SWR1 OUTPUT PRINT TIMES
                        STRESS PERIOD   25   TIME STEP    90
 --------------- --------------- --------------- --------------- ---------------
      97200.                                                                    
 -------------------------------------------------------------------------------
 
 SOLVING FOR HEAD 
 INITIAL HNEW IS AN EXACT SOLUTION.

 NO OUTPUT CONTROL FOR STRESS PERIOD   25   TIME STEP   91

 -------------------------------------------------------------------------------
                             SWR1 OUTPUT PRINT TIMES
                        STRESS PERIOD   25   TIME STEP    91
 --------------- --------------- --------------- --------------- ---------------
      97320.                                                                    
 -------------------------------------------------------------------------------
 
 SOLVING FOR HEAD 
 INITIAL HNEW IS AN EXACT SOLUTION.

 NO OUTPUT CONTROL FOR STRESS PERIOD   25   TIME STEP   92

 -------------------------------------------------------------------------------
                             SWR1 OUTPUT PRINT TIMES
                        STRESS PERIOD   25   TIME STEP    92
 --------------- --------------- --------------- --------------- ---------------
      97440.                                                                    
 -------------------------------------------------------------------------------
 
 SOLVING FOR HEAD 
 INITIAL HNEW IS AN EXACT SOLUTION.

 NO OUTPUT CONTROL FOR STRESS PERIOD   25   TIME STEP   93

 -------------------------------------------------------------------------------
                             SWR1 OUTPUT PRINT TIMES
                        STRESS PERIOD   25   TIME STEP    93
 --------------- --------------- --------------- --------------- ---------------
      97560.                                                                    
 -------------------------------------------------------------------------------
 
 SOLVING FOR HEAD 
 INITIAL HNEW IS AN EXACT SOLUTION.

 NO OUTPUT CONTROL FOR STRESS PERIOD   25   TIME STEP   94

 -------------------------------------------------------------------------------
                             SWR1 OUTPUT PRINT TIMES
                        STRESS PERIOD   25   TIME STEP    94
 --------------- --------------- --------------- --------------- ---------------
      97680.                                                                    
 -------------------------------------------------------------------------------
 
 SOLVING FOR HEAD 
 INITIAL HNEW IS AN EXACT SOLUTION.

 NO OUTPUT CONTROL FOR STRESS PERIOD   25   TIME STEP   95

 -------------------------------------------------------------------------------
                             SWR1 OUTPUT PRINT TIMES
                        STRESS PERIOD   25   TIME STEP    95
 --------------- --------------- --------------- --------------- ---------------
      97800.                                                                    
 -------------------------------------------------------------------------------
 
 SOLVING FOR HEAD 
 INITIAL HNEW IS AN EXACT SOLUTION.

 NO OUTPUT CONTROL FOR STRESS PERIOD   25   TIME STEP   96

 -------------------------------------------------------------------------------
                             SWR1 OUTPUT PRINT TIMES
                        STRESS PERIOD   25   TIME STEP    96
 --------------- --------------- --------------- --------------- ---------------
      97920.                                                                    
 -------------------------------------------------------------------------------
 
 SOLVING FOR HEAD 
 INITIAL HNEW IS AN EXACT SOLUTION.

 NO OUTPUT CONTROL FOR STRESS PERIOD   25   TIME STEP   97

 -------------------------------------------------------------------------------
                             SWR1 OUTPUT PRINT TIMES
                        STRESS PERIOD   25   TIME STEP    97
 --------------- --------------- --------------- --------------- ---------------
      98040.                                                                    
 -------------------------------------------------------------------------------
 
 SOLVING FOR HEAD 
 INITIAL HNEW IS AN EXACT SOLUTION.

 NO OUTPUT CONTROL FOR STRESS PERIOD   25   TIME STEP   98

 -------------------------------------------------------------------------------
                             SWR1 OUTPUT PRINT TIMES
                        STRESS PERIOD   25   TIME STEP    98
 --------------- --------------- --------------- --------------- ---------------
      98160.                                                                    
 -------------------------------------------------------------------------------
 
 SOLVING FOR HEAD 
 INITIAL HNEW IS AN EXACT SOLUTION.

 NO OUTPUT CONTROL FOR STRESS PERIOD   25   TIME STEP   99

 -------------------------------------------------------------------------------
                             SWR1 OUTPUT PRINT TIMES
                        STRESS PERIOD   25   TIME STEP    99
 --------------- --------------- --------------- --------------- ---------------
      98280.                                                                    
 -------------------------------------------------------------------------------
 
 SOLVING FOR HEAD 
 INITIAL HNEW IS AN EXACT SOLUTION.

 NO OUTPUT CONTROL FOR STRESS PERIOD   25   TIME STEP  100

 -------------------------------------------------------------------------------
                             SWR1 OUTPUT PRINT TIMES
                        STRESS PERIOD   25   TIME STEP   100
 --------------- --------------- --------------- --------------- ---------------
      98400.                                                                    
 -------------------------------------------------------------------------------
 
 SOLVING FOR HEAD 
 INITIAL HNEW IS AN EXACT SOLUTION.

 NO OUTPUT CONTROL FOR STRESS PERIOD   25   TIME STEP  101

 -------------------------------------------------------------------------------
                             SWR1 OUTPUT PRINT TIMES
                        STRESS PERIOD   25   TIME STEP   101
 --------------- --------------- --------------- --------------- ---------------
      98520.                                                                    
 -------------------------------------------------------------------------------
 
 SOLVING FOR HEAD 
 INITIAL HNEW IS AN EXACT SOLUTION.

 NO OUTPUT CONTROL FOR STRESS PERIOD   25   TIME STEP  102

 -------------------------------------------------------------------------------
                             SWR1 OUTPUT PRINT TIMES
                        STRESS PERIOD   25   TIME STEP   102
 --------------- --------------- --------------- --------------- ---------------
      98640.                                                                    
 -------------------------------------------------------------------------------
 
 SOLVING FOR HEAD 
 INITIAL HNEW IS AN EXACT SOLUTION.

 NO OUTPUT CONTROL FOR STRESS PERIOD   25   TIME STEP  103

 -------------------------------------------------------------------------------
                             SWR1 OUTPUT PRINT TIMES
                        STRESS PERIOD   25   TIME STEP   103
 --------------- --------------- --------------- --------------- ---------------
      98760.                                                                    
 -------------------------------------------------------------------------------
 
 SOLVING FOR HEAD 
 INITIAL HNEW IS AN EXACT SOLUTION.

 NO OUTPUT CONTROL FOR STRESS PERIOD   25   TIME STEP  104

 -------------------------------------------------------------------------------
                             SWR1 OUTPUT PRINT TIMES
                        STRESS PERIOD   25   TIME STEP   104
 --------------- --------------- --------------- --------------- ---------------
      98880.                                                                    
 -------------------------------------------------------------------------------
 
 SOLVING FOR HEAD 
 INITIAL HNEW IS AN EXACT SOLUTION.

 NO OUTPUT CONTROL FOR STRESS PERIOD   25   TIME STEP  105

 -------------------------------------------------------------------------------
                             SWR1 OUTPUT PRINT TIMES
                        STRESS PERIOD   25   TIME STEP   105
 --------------- --------------- --------------- --------------- ---------------
      99000.                                                                    
 -------------------------------------------------------------------------------
 
 SOLVING FOR HEAD 
 INITIAL HNEW IS AN EXACT SOLUTION.

 NO OUTPUT CONTROL FOR STRESS PERIOD   25   TIME STEP  106

 -------------------------------------------------------------------------------
                             SWR1 OUTPUT PRINT TIMES
                        STRESS PERIOD   25   TIME STEP   106
 --------------- --------------- --------------- --------------- ---------------
      99120.                                                                    
 -------------------------------------------------------------------------------
 
 SOLVING FOR HEAD 
 INITIAL HNEW IS AN EXACT SOLUTION.

 NO OUTPUT CONTROL FOR STRESS PERIOD   25   TIME STEP  107

 -------------------------------------------------------------------------------
                             SWR1 OUTPUT PRINT TIMES
                        STRESS PERIOD   25   TIME STEP   107
 --------------- --------------- --------------- --------------- ---------------
      99240.                                                                    
 -------------------------------------------------------------------------------
 
 SOLVING FOR HEAD 
 INITIAL HNEW IS AN EXACT SOLUTION.

 NO OUTPUT CONTROL FOR STRESS PERIOD   25   TIME STEP  108

 -------------------------------------------------------------------------------
                             SWR1 OUTPUT PRINT TIMES
                        STRESS PERIOD   25   TIME STEP   108
 --------------- --------------- --------------- --------------- ---------------
      99360.                                                                    
 -------------------------------------------------------------------------------
 
 SOLVING FOR HEAD 
 INITIAL HNEW IS AN EXACT SOLUTION.

 NO OUTPUT CONTROL FOR STRESS PERIOD   25   TIME STEP  109

 -------------------------------------------------------------------------------
                             SWR1 OUTPUT PRINT TIMES
                        STRESS PERIOD   25   TIME STEP   109
 --------------- --------------- --------------- --------------- ---------------
      99480.                                                                    
 -------------------------------------------------------------------------------
 
 SOLVING FOR HEAD 
 INITIAL HNEW IS AN EXACT SOLUTION.

 NO OUTPUT CONTROL FOR STRESS PERIOD   25   TIME STEP  110

 -------------------------------------------------------------------------------
                             SWR1 OUTPUT PRINT TIMES
                        STRESS PERIOD   25   TIME STEP   110
 --------------- --------------- --------------- --------------- ---------------
      99600.                                                                    
 -------------------------------------------------------------------------------
 
 SOLVING FOR HEAD 
 INITIAL HNEW IS AN EXACT SOLUTION.

 NO OUTPUT CONTROL FOR STRESS PERIOD   25   TIME STEP  111

 -------------------------------------------------------------------------------
                             SWR1 OUTPUT PRINT TIMES
                        STRESS PERIOD   25   TIME STEP   111
 --------------- --------------- --------------- --------------- ---------------
      99720.                                                                    
 -------------------------------------------------------------------------------
 
 SOLVING FOR HEAD 
 INITIAL HNEW IS AN EXACT SOLUTION.

 NO OUTPUT CONTROL FOR STRESS PERIOD   25   TIME STEP  112

 -------------------------------------------------------------------------------
                             SWR1 OUTPUT PRINT TIMES
                        STRESS PERIOD   25   TIME STEP   112
 --------------- --------------- --------------- --------------- ---------------
      99840.                                                                    
 -------------------------------------------------------------------------------
 
 SOLVING FOR HEAD 
 INITIAL HNEW IS AN EXACT SOLUTION.

 NO OUTPUT CONTROL FOR STRESS PERIOD   25   TIME STEP  113

 -------------------------------------------------------------------------------
                             SWR1 OUTPUT PRINT TIMES
                        STRESS PERIOD   25   TIME STEP   113
 --------------- --------------- --------------- --------------- ---------------
      99960.                                                                    
 -------------------------------------------------------------------------------
 
 SOLVING FOR HEAD 
 INITIAL HNEW IS AN EXACT SOLUTION.

 NO OUTPUT CONTROL FOR STRESS PERIOD   25   TIME STEP  114

 -------------------------------------------------------------------------------
                             SWR1 OUTPUT PRINT TIMES
                        STRESS PERIOD   25   TIME STEP   114
 --------------- --------------- --------------- --------------- ---------------
     0.10008E+06                                                                
 -------------------------------------------------------------------------------
 
 SOLVING FOR HEAD 
 INITIAL HNEW IS AN EXACT SOLUTION.

 NO OUTPUT CONTROL FOR STRESS PERIOD   25   TIME STEP  115

 -------------------------------------------------------------------------------
                             SWR1 OUTPUT PRINT TIMES
                        STRESS PERIOD   25   TIME STEP   115
 --------------- --------------- --------------- --------------- ---------------
     0.10020E+06                                                                
 -------------------------------------------------------------------------------
 
 SOLVING FOR HEAD 
 INITIAL HNEW IS AN EXACT SOLUTION.

 NO OUTPUT CONTROL FOR STRESS PERIOD   25   TIME STEP  116

 -------------------------------------------------------------------------------
                             SWR1 OUTPUT PRINT TIMES
                        STRESS PERIOD   25   TIME STEP   116
 --------------- --------------- --------------- --------------- ---------------
     0.10032E+06                                                                
 -------------------------------------------------------------------------------
 
 SOLVING FOR HEAD 
 INITIAL HNEW IS AN EXACT SOLUTION.

 NO OUTPUT CONTROL FOR STRESS PERIOD   25   TIME STEP  117

 -------------------------------------------------------------------------------
                             SWR1 OUTPUT PRINT TIMES
                        STRESS PERIOD   25   TIME STEP   117
 --------------- --------------- --------------- --------------- ---------------
     0.10044E+06                                                                
 -------------------------------------------------------------------------------
 
 SOLVING FOR HEAD 
 INITIAL HNEW IS AN EXACT SOLUTION.

 NO OUTPUT CONTROL FOR STRESS PERIOD   25   TIME STEP  118

 -------------------------------------------------------------------------------
                             SWR1 OUTPUT PRINT TIMES
                        STRESS PERIOD   25   TIME STEP   118
 --------------- --------------- --------------- --------------- ---------------
     0.10056E+06                                                                
 -------------------------------------------------------------------------------
 
 SOLVING FOR HEAD 
 INITIAL HNEW IS AN EXACT SOLUTION.

 NO OUTPUT CONTROL FOR STRESS PERIOD   25   TIME STEP  119

 -------------------------------------------------------------------------------
                             SWR1 OUTPUT PRINT TIMES
                        STRESS PERIOD   25   TIME STEP   119
 --------------- --------------- --------------- --------------- ---------------
     0.10068E+06                                                                
 -------------------------------------------------------------------------------
 
 SOLVING FOR HEAD 
 INITIAL HNEW IS AN EXACT SOLUTION.

 NO OUTPUT CONTROL FOR STRESS PERIOD   25   TIME STEP  120

 -------------------------------------------------------------------------------
                             SWR1 OUTPUT PRINT TIMES
                        STRESS PERIOD   25   TIME STEP   120
 --------------- --------------- --------------- --------------- ---------------
     0.10080E+06                                                                
 -------------------------------------------------------------------------------
 
 SOLVING FOR HEAD 
 INITIAL HNEW IS AN EXACT SOLUTION.

 NO OUTPUT CONTROL FOR STRESS PERIOD   25   TIME STEP  121

 -------------------------------------------------------------------------------
                             SWR1 OUTPUT PRINT TIMES
                        STRESS PERIOD   25   TIME STEP   121
 --------------- --------------- --------------- --------------- ---------------
     0.10092E+06                                                                
 -------------------------------------------------------------------------------
 
 SOLVING FOR HEAD 
 INITIAL HNEW IS AN EXACT SOLUTION.

 NO OUTPUT CONTROL FOR STRESS PERIOD   25   TIME STEP  122

 -------------------------------------------------------------------------------
                             SWR1 OUTPUT PRINT TIMES
                        STRESS PERIOD   25   TIME STEP   122
 --------------- --------------- --------------- --------------- ---------------
     0.10104E+06                                                                
 -------------------------------------------------------------------------------
 
 SOLVING FOR HEAD 
 INITIAL HNEW IS AN EXACT SOLUTION.

 NO OUTPUT CONTROL FOR STRESS PERIOD   25   TIME STEP  123

 -------------------------------------------------------------------------------
                             SWR1 OUTPUT PRINT TIMES
                        STRESS PERIOD   25   TIME STEP   123
 --------------- --------------- --------------- --------------- ---------------
     0.10116E+06                                                                
 -------------------------------------------------------------------------------
 
 SOLVING FOR HEAD 
 INITIAL HNEW IS AN EXACT SOLUTION.

 NO OUTPUT CONTROL FOR STRESS PERIOD   25   TIME STEP  124

 -------------------------------------------------------------------------------
                             SWR1 OUTPUT PRINT TIMES
                        STRESS PERIOD   25   TIME STEP   124
 --------------- --------------- --------------- --------------- ---------------
     0.10128E+06                                                                
 -------------------------------------------------------------------------------
 
 SOLVING FOR HEAD 
 INITIAL HNEW IS AN EXACT SOLUTION.

 NO OUTPUT CONTROL FOR STRESS PERIOD   25   TIME STEP  125

 -------------------------------------------------------------------------------
                             SWR1 OUTPUT PRINT TIMES
                        STRESS PERIOD   25   TIME STEP   125
 --------------- --------------- --------------- --------------- ---------------
     0.10140E+06                                                                
 -------------------------------------------------------------------------------
 
 SOLVING FOR HEAD 
 INITIAL HNEW IS AN EXACT SOLUTION.

 NO OUTPUT CONTROL FOR STRESS PERIOD   25   TIME STEP  126

 -------------------------------------------------------------------------------
                             SWR1 OUTPUT PRINT TIMES
                        STRESS PERIOD   25   TIME STEP   126
 --------------- --------------- --------------- --------------- ---------------
     0.10152E+06                                                                
 -------------------------------------------------------------------------------
 
 SOLVING FOR HEAD 
 INITIAL HNEW IS AN EXACT SOLUTION.

 NO OUTPUT CONTROL FOR STRESS PERIOD   25   TIME STEP  127

 -------------------------------------------------------------------------------
                             SWR1 OUTPUT PRINT TIMES
                        STRESS PERIOD   25   TIME STEP   127
 --------------- --------------- --------------- --------------- ---------------
     0.10164E+06                                                                
 -------------------------------------------------------------------------------
 
 SOLVING FOR HEAD 
 INITIAL HNEW IS AN EXACT SOLUTION.

 NO OUTPUT CONTROL FOR STRESS PERIOD   25   TIME STEP  128

 -------------------------------------------------------------------------------
                             SWR1 OUTPUT PRINT TIMES
                        STRESS PERIOD   25   TIME STEP   128
 --------------- --------------- --------------- --------------- ---------------
     0.10176E+06                                                                
 -------------------------------------------------------------------------------
 
 SOLVING FOR HEAD 
 INITIAL HNEW IS AN EXACT SOLUTION.

 NO OUTPUT CONTROL FOR STRESS PERIOD   25   TIME STEP  129

 -------------------------------------------------------------------------------
                             SWR1 OUTPUT PRINT TIMES
                        STRESS PERIOD   25   TIME STEP   129
 --------------- --------------- --------------- --------------- ---------------
     0.10188E+06                                                                
 -------------------------------------------------------------------------------
 
 SOLVING FOR HEAD 
 INITIAL HNEW IS AN EXACT SOLUTION.

 NO OUTPUT CONTROL FOR STRESS PERIOD   25   TIME STEP  130

 -------------------------------------------------------------------------------
                             SWR1 OUTPUT PRINT TIMES
                        STRESS PERIOD   25   TIME STEP   130
 --------------- --------------- --------------- --------------- ---------------
     0.10200E+06                                                                
 -------------------------------------------------------------------------------
 
 SOLVING FOR HEAD 
 INITIAL HNEW IS AN EXACT SOLUTION.

 NO OUTPUT CONTROL FOR STRESS PERIOD   25   TIME STEP  131

 -------------------------------------------------------------------------------
                             SWR1 OUTPUT PRINT TIMES
                        STRESS PERIOD   25   TIME STEP   131
 --------------- --------------- --------------- --------------- ---------------
     0.10212E+06                                                                
 -------------------------------------------------------------------------------
 
 SOLVING FOR HEAD 
 INITIAL HNEW IS AN EXACT SOLUTION.

 NO OUTPUT CONTROL FOR STRESS PERIOD   25   TIME STEP  132

 -------------------------------------------------------------------------------
                             SWR1 OUTPUT PRINT TIMES
                        STRESS PERIOD   25   TIME STEP   132
 --------------- --------------- --------------- --------------- ---------------
     0.10224E+06                                                                
 -------------------------------------------------------------------------------
 
 SOLVING FOR HEAD 
 INITIAL HNEW IS AN EXACT SOLUTION.

 NO OUTPUT CONTROL FOR STRESS PERIOD   25   TIME STEP  133

 -------------------------------------------------------------------------------
                             SWR1 OUTPUT PRINT TIMES
                        STRESS PERIOD   25   TIME STEP   133
 --------------- --------------- --------------- --------------- ---------------
     0.10236E+06                                                                
 -------------------------------------------------------------------------------
 
 SOLVING FOR HEAD 
 INITIAL HNEW IS AN EXACT SOLUTION.

 NO OUTPUT CONTROL FOR STRESS PERIOD   25   TIME STEP  134

 -------------------------------------------------------------------------------
                             SWR1 OUTPUT PRINT TIMES
                        STRESS PERIOD   25   TIME STEP   134
 --------------- --------------- --------------- --------------- ---------------
     0.10248E+06                                                                
 -------------------------------------------------------------------------------
 
 SOLVING FOR HEAD 
 INITIAL HNEW IS AN EXACT SOLUTION.

 NO OUTPUT CONTROL FOR STRESS PERIOD   25   TIME STEP  135

 -------------------------------------------------------------------------------
                             SWR1 OUTPUT PRINT TIMES
                        STRESS PERIOD   25   TIME STEP   135
 --------------- --------------- --------------- --------------- ---------------
     0.10260E+06                                                                
 -------------------------------------------------------------------------------
 
 SOLVING FOR HEAD 
 INITIAL HNEW IS AN EXACT SOLUTION.

 NO OUTPUT CONTROL FOR STRESS PERIOD   25   TIME STEP  136

 -------------------------------------------------------------------------------
                             SWR1 OUTPUT PRINT TIMES
                        STRESS PERIOD   25   TIME STEP   136
 --------------- --------------- --------------- --------------- ---------------
     0.10272E+06                                                                
 -------------------------------------------------------------------------------
 
 SOLVING FOR HEAD 
 INITIAL HNEW IS AN EXACT SOLUTION.

 NO OUTPUT CONTROL FOR STRESS PERIOD   25   TIME STEP  137

 -------------------------------------------------------------------------------
                             SWR1 OUTPUT PRINT TIMES
                        STRESS PERIOD   25   TIME STEP   137
 --------------- --------------- --------------- --------------- ---------------
     0.10284E+06                                                                
 -------------------------------------------------------------------------------
 
 SOLVING FOR HEAD 
 INITIAL HNEW IS AN EXACT SOLUTION.

 NO OUTPUT CONTROL FOR STRESS PERIOD   25   TIME STEP  138

 -------------------------------------------------------------------------------
                             SWR1 OUTPUT PRINT TIMES
                        STRESS PERIOD   25   TIME STEP   138
 --------------- --------------- --------------- --------------- ---------------
     0.10296E+06                                                                
 -------------------------------------------------------------------------------
 
 SOLVING FOR HEAD 
 INITIAL HNEW IS AN EXACT SOLUTION.

 NO OUTPUT CONTROL FOR STRESS PERIOD   25   TIME STEP  139

 -------------------------------------------------------------------------------
                             SWR1 OUTPUT PRINT TIMES
                        STRESS PERIOD   25   TIME STEP   139
 --------------- --------------- --------------- --------------- ---------------
     0.10308E+06                                                                
 -------------------------------------------------------------------------------
 
 SOLVING FOR HEAD 
 INITIAL HNEW IS AN EXACT SOLUTION.

 NO OUTPUT CONTROL FOR STRESS PERIOD   25   TIME STEP  140

 -------------------------------------------------------------------------------
                             SWR1 OUTPUT PRINT TIMES
                        STRESS PERIOD   25   TIME STEP   140
 --------------- --------------- --------------- --------------- ---------------
     0.10320E+06                                                                
 -------------------------------------------------------------------------------
 
 SOLVING FOR HEAD 
 INITIAL HNEW IS AN EXACT SOLUTION.

 NO OUTPUT CONTROL FOR STRESS PERIOD   25   TIME STEP  141

 -------------------------------------------------------------------------------
                             SWR1 OUTPUT PRINT TIMES
                        STRESS PERIOD   25   TIME STEP   141
 --------------- --------------- --------------- --------------- ---------------
     0.10332E+06                                                                
 -------------------------------------------------------------------------------
 
 SOLVING FOR HEAD 
 INITIAL HNEW IS AN EXACT SOLUTION.

 NO OUTPUT CONTROL FOR STRESS PERIOD   25   TIME STEP  142

 -------------------------------------------------------------------------------
                             SWR1 OUTPUT PRINT TIMES
                        STRESS PERIOD   25   TIME STEP   142
 --------------- --------------- --------------- --------------- ---------------
     0.10344E+06                                                                
 -------------------------------------------------------------------------------
 
 SOLVING FOR HEAD 
 INITIAL HNEW IS AN EXACT SOLUTION.

 NO OUTPUT CONTROL FOR STRESS PERIOD   25   TIME STEP  143

 -------------------------------------------------------------------------------
                             SWR1 OUTPUT PRINT TIMES
                        STRESS PERIOD   25   TIME STEP   143
 --------------- --------------- --------------- --------------- ---------------
     0.10356E+06                                                                
 -------------------------------------------------------------------------------
 
 SOLVING FOR HEAD 
 INITIAL HNEW IS AN EXACT SOLUTION.

 NO OUTPUT CONTROL FOR STRESS PERIOD   25   TIME STEP  144

 -------------------------------------------------------------------------------
                             SWR1 OUTPUT PRINT TIMES
                        STRESS PERIOD   25   TIME STEP   144
 --------------- --------------- --------------- --------------- ---------------
     0.10368E+06                                                                
 -------------------------------------------------------------------------------
 
 SOLVING FOR HEAD 
 INITIAL HNEW IS AN EXACT SOLUTION.

 NO OUTPUT CONTROL FOR STRESS PERIOD   25   TIME STEP  145

 -------------------------------------------------------------------------------
                             SWR1 OUTPUT PRINT TIMES
                        STRESS PERIOD   25   TIME STEP   145
 --------------- --------------- --------------- --------------- ---------------
     0.10380E+06                                                                
 -------------------------------------------------------------------------------
 
 SOLVING FOR HEAD 
 INITIAL HNEW IS AN EXACT SOLUTION.

 NO OUTPUT CONTROL FOR STRESS PERIOD   25   TIME STEP  146

 -------------------------------------------------------------------------------
                             SWR1 OUTPUT PRINT TIMES
                        STRESS PERIOD   25   TIME STEP   146
 --------------- --------------- --------------- --------------- ---------------
     0.10392E+06                                                                
 -------------------------------------------------------------------------------
 
 SOLVING FOR HEAD 
 INITIAL HNEW IS AN EXACT SOLUTION.

 NO OUTPUT CONTROL FOR STRESS PERIOD   25   TIME STEP  147

 -------------------------------------------------------------------------------
                             SWR1 OUTPUT PRINT TIMES
                        STRESS PERIOD   25   TIME STEP   147
 --------------- --------------- --------------- --------------- ---------------
     0.10404E+06                                                                
 -------------------------------------------------------------------------------
 
 SOLVING FOR HEAD 
 INITIAL HNEW IS AN EXACT SOLUTION.

 NO OUTPUT CONTROL FOR STRESS PERIOD   25   TIME STEP  148

 -------------------------------------------------------------------------------
                             SWR1 OUTPUT PRINT TIMES
                        STRESS PERIOD   25   TIME STEP   148
 --------------- --------------- --------------- --------------- ---------------
     0.10416E+06                                                                
 -------------------------------------------------------------------------------
 
 SOLVING FOR HEAD 
 INITIAL HNEW IS AN EXACT SOLUTION.

 NO OUTPUT CONTROL FOR STRESS PERIOD   25   TIME STEP  149

 -------------------------------------------------------------------------------
                             SWR1 OUTPUT PRINT TIMES
                        STRESS PERIOD   25   TIME STEP   149
 --------------- --------------- --------------- --------------- ---------------
     0.10428E+06                                                                
 -------------------------------------------------------------------------------
 
 SOLVING FOR HEAD 
 INITIAL HNEW IS AN EXACT SOLUTION.

 NO OUTPUT CONTROL FOR STRESS PERIOD   25   TIME STEP  150

 -------------------------------------------------------------------------------
                             SWR1 OUTPUT PRINT TIMES
                        STRESS PERIOD   25   TIME STEP   150
 --------------- --------------- --------------- --------------- ---------------
     0.10440E+06                                                                
 -------------------------------------------------------------------------------
 
 SOLVING FOR HEAD 
 INITIAL HNEW IS AN EXACT SOLUTION.

 NO OUTPUT CONTROL FOR STRESS PERIOD   25   TIME STEP  151

 -------------------------------------------------------------------------------
                             SWR1 OUTPUT PRINT TIMES
                        STRESS PERIOD   25   TIME STEP   151
 --------------- --------------- --------------- --------------- ---------------
     0.10452E+06                                                                
 -------------------------------------------------------------------------------
 
 SOLVING FOR HEAD 
 INITIAL HNEW IS AN EXACT SOLUTION.

 NO OUTPUT CONTROL FOR STRESS PERIOD   25   TIME STEP  152

 -------------------------------------------------------------------------------
                             SWR1 OUTPUT PRINT TIMES
                        STRESS PERIOD   25   TIME STEP   152
 --------------- --------------- --------------- --------------- ---------------
     0.10464E+06                                                                
 -------------------------------------------------------------------------------
 
 SOLVING FOR HEAD 
 INITIAL HNEW IS AN EXACT SOLUTION.

 NO OUTPUT CONTROL FOR STRESS PERIOD   25   TIME STEP  153

 -------------------------------------------------------------------------------
                             SWR1 OUTPUT PRINT TIMES
                        STRESS PERIOD   25   TIME STEP   153
 --------------- --------------- --------------- --------------- ---------------
     0.10476E+06                                                                
 -------------------------------------------------------------------------------
 
 SOLVING FOR HEAD 
 INITIAL HNEW IS AN EXACT SOLUTION.

 NO OUTPUT CONTROL FOR STRESS PERIOD   25   TIME STEP  154

 -------------------------------------------------------------------------------
                             SWR1 OUTPUT PRINT TIMES
                        STRESS PERIOD   25   TIME STEP   154
 --------------- --------------- --------------- --------------- ---------------
     0.10488E+06                                                                
 -------------------------------------------------------------------------------
 
 SOLVING FOR HEAD 
 INITIAL HNEW IS AN EXACT SOLUTION.

 NO OUTPUT CONTROL FOR STRESS PERIOD   25   TIME STEP  155

 -------------------------------------------------------------------------------
                             SWR1 OUTPUT PRINT TIMES
                        STRESS PERIOD   25   TIME STEP   155
 --------------- --------------- --------------- --------------- ---------------
     0.10500E+06                                                                
 -------------------------------------------------------------------------------
 
 SOLVING FOR HEAD 
 INITIAL HNEW IS AN EXACT SOLUTION.

 NO OUTPUT CONTROL FOR STRESS PERIOD   25   TIME STEP  156

 -------------------------------------------------------------------------------
                             SWR1 OUTPUT PRINT TIMES
                        STRESS PERIOD   25   TIME STEP   156
 --------------- --------------- --------------- --------------- ---------------
     0.10512E+06                                                                
 -------------------------------------------------------------------------------
 
 SOLVING FOR HEAD 
 INITIAL HNEW IS AN EXACT SOLUTION.

 NO OUTPUT CONTROL FOR STRESS PERIOD   25   TIME STEP  157

 -------------------------------------------------------------------------------
                             SWR1 OUTPUT PRINT TIMES
                        STRESS PERIOD   25   TIME STEP   157
 --------------- --------------- --------------- --------------- ---------------
     0.10524E+06                                                                
 -------------------------------------------------------------------------------
 
 SOLVING FOR HEAD 
 INITIAL HNEW IS AN EXACT SOLUTION.

 NO OUTPUT CONTROL FOR STRESS PERIOD   25   TIME STEP  158

 -------------------------------------------------------------------------------
                             SWR1 OUTPUT PRINT TIMES
                        STRESS PERIOD   25   TIME STEP   158
 --------------- --------------- --------------- --------------- ---------------
     0.10536E+06                                                                
 -------------------------------------------------------------------------------
 
 SOLVING FOR HEAD 
 INITIAL HNEW IS AN EXACT SOLUTION.

 NO OUTPUT CONTROL FOR STRESS PERIOD   25   TIME STEP  159

 -------------------------------------------------------------------------------
                             SWR1 OUTPUT PRINT TIMES
                        STRESS PERIOD   25   TIME STEP   159
 --------------- --------------- --------------- --------------- ---------------
     0.10548E+06                                                                
 -------------------------------------------------------------------------------
 
 SOLVING FOR HEAD 
 INITIAL HNEW IS AN EXACT SOLUTION.

 NO OUTPUT CONTROL FOR STRESS PERIOD   25   TIME STEP  160

 -------------------------------------------------------------------------------
                             SWR1 OUTPUT PRINT TIMES
                        STRESS PERIOD   25   TIME STEP   160
 --------------- --------------- --------------- --------------- ---------------
     0.10560E+06                                                                
 -------------------------------------------------------------------------------
 
 SOLVING FOR HEAD 
 INITIAL HNEW IS AN EXACT SOLUTION.

 NO OUTPUT CONTROL FOR STRESS PERIOD   25   TIME STEP  161

 -------------------------------------------------------------------------------
                             SWR1 OUTPUT PRINT TIMES
                        STRESS PERIOD   25   TIME STEP   161
 --------------- --------------- --------------- --------------- ---------------
     0.10572E+06                                                                
 -------------------------------------------------------------------------------
 
 SOLVING FOR HEAD 
 INITIAL HNEW IS AN EXACT SOLUTION.

 NO OUTPUT CONTROL FOR STRESS PERIOD   25   TIME STEP  162

 -------------------------------------------------------------------------------
                             SWR1 OUTPUT PRINT TIMES
                        STRESS PERIOD   25   TIME STEP   162
 --------------- --------------- --------------- --------------- ---------------
     0.10584E+06                                                                
 -------------------------------------------------------------------------------
 
 SOLVING FOR HEAD 
 INITIAL HNEW IS AN EXACT SOLUTION.

 NO OUTPUT CONTROL FOR STRESS PERIOD   25   TIME STEP  163

 -------------------------------------------------------------------------------
                             SWR1 OUTPUT PRINT TIMES
                        STRESS PERIOD   25   TIME STEP   163
 --------------- --------------- --------------- --------------- ---------------
     0.10596E+06                                                                
 -------------------------------------------------------------------------------
 
 SOLVING FOR HEAD 
 INITIAL HNEW IS AN EXACT SOLUTION.

 NO OUTPUT CONTROL FOR STRESS PERIOD   25   TIME STEP  164

 -------------------------------------------------------------------------------
                             SWR1 OUTPUT PRINT TIMES
                        STRESS PERIOD   25   TIME STEP   164
 --------------- --------------- --------------- --------------- ---------------
     0.10608E+06                                                                
 -------------------------------------------------------------------------------
 
 SOLVING FOR HEAD 
 INITIAL HNEW IS AN EXACT SOLUTION.

 NO OUTPUT CONTROL FOR STRESS PERIOD   25   TIME STEP  165

 -------------------------------------------------------------------------------
                             SWR1 OUTPUT PRINT TIMES
                        STRESS PERIOD   25   TIME STEP   165
 --------------- --------------- --------------- --------------- ---------------
     0.10620E+06                                                                
 -------------------------------------------------------------------------------
 
 SOLVING FOR HEAD 
 INITIAL HNEW IS AN EXACT SOLUTION.

 NO OUTPUT CONTROL FOR STRESS PERIOD   25   TIME STEP  166

 -------------------------------------------------------------------------------
                             SWR1 OUTPUT PRINT TIMES
                        STRESS PERIOD   25   TIME STEP   166
 --------------- --------------- --------------- --------------- ---------------
     0.10632E+06                                                                
 -------------------------------------------------------------------------------
 
 SOLVING FOR HEAD 
 INITIAL HNEW IS AN EXACT SOLUTION.

 NO OUTPUT CONTROL FOR STRESS PERIOD   25   TIME STEP  167

 -------------------------------------------------------------------------------
                             SWR1 OUTPUT PRINT TIMES
                        STRESS PERIOD   25   TIME STEP   167
 --------------- --------------- --------------- --------------- ---------------
     0.10644E+06                                                                
 -------------------------------------------------------------------------------
 
 SOLVING FOR HEAD 
 INITIAL HNEW IS AN EXACT SOLUTION.

 NO OUTPUT CONTROL FOR STRESS PERIOD   25   TIME STEP  168

 -------------------------------------------------------------------------------
                             SWR1 OUTPUT PRINT TIMES
                        STRESS PERIOD   25   TIME STEP   168
 --------------- --------------- --------------- --------------- ---------------
     0.10656E+06                                                                
 -------------------------------------------------------------------------------
 
 SOLVING FOR HEAD 
 INITIAL HNEW IS AN EXACT SOLUTION.

 NO OUTPUT CONTROL FOR STRESS PERIOD   25   TIME STEP  169

 -------------------------------------------------------------------------------
                             SWR1 OUTPUT PRINT TIMES
                        STRESS PERIOD   25   TIME STEP   169
 --------------- --------------- --------------- --------------- ---------------
     0.10668E+06                                                                
 -------------------------------------------------------------------------------
 
 SOLVING FOR HEAD 
 INITIAL HNEW IS AN EXACT SOLUTION.

 NO OUTPUT CONTROL FOR STRESS PERIOD   25   TIME STEP  170

 -------------------------------------------------------------------------------
                             SWR1 OUTPUT PRINT TIMES
                        STRESS PERIOD   25   TIME STEP   170
 --------------- --------------- --------------- --------------- ---------------
     0.10680E+06                                                                
 -------------------------------------------------------------------------------
 
 SOLVING FOR HEAD 
 INITIAL HNEW IS AN EXACT SOLUTION.

 NO OUTPUT CONTROL FOR STRESS PERIOD   25   TIME STEP  171

 -------------------------------------------------------------------------------
                             SWR1 OUTPUT PRINT TIMES
                        STRESS PERIOD   25   TIME STEP   171
 --------------- --------------- --------------- --------------- ---------------
     0.10692E+06                                                                
 -------------------------------------------------------------------------------
 
 SOLVING FOR HEAD 
 INITIAL HNEW IS AN EXACT SOLUTION.

 NO OUTPUT CONTROL FOR STRESS PERIOD   25   TIME STEP  172

 -------------------------------------------------------------------------------
                             SWR1 OUTPUT PRINT TIMES
                        STRESS PERIOD   25   TIME STEP   172
 --------------- --------------- --------------- --------------- ---------------
     0.10704E+06                                                                
 -------------------------------------------------------------------------------
 
 SOLVING FOR HEAD 
 INITIAL HNEW IS AN EXACT SOLUTION.

 NO OUTPUT CONTROL FOR STRESS PERIOD   25   TIME STEP  173

 -------------------------------------------------------------------------------
                             SWR1 OUTPUT PRINT TIMES
                        STRESS PERIOD   25   TIME STEP   173
 --------------- --------------- --------------- --------------- ---------------
     0.10716E+06                                                                
 -------------------------------------------------------------------------------
 
 SOLVING FOR HEAD 
 INITIAL HNEW IS AN EXACT SOLUTION.

 NO OUTPUT CONTROL FOR STRESS PERIOD   25   TIME STEP  174

 -------------------------------------------------------------------------------
                             SWR1 OUTPUT PRINT TIMES
                        STRESS PERIOD   25   TIME STEP   174
 --------------- --------------- --------------- --------------- ---------------
     0.10728E+06                                                                
 -------------------------------------------------------------------------------
 
 SOLVING FOR HEAD 
 INITIAL HNEW IS AN EXACT SOLUTION.

 NO OUTPUT CONTROL FOR STRESS PERIOD   25   TIME STEP  175

 -------------------------------------------------------------------------------
                             SWR1 OUTPUT PRINT TIMES
                        STRESS PERIOD   25   TIME STEP   175
 --------------- --------------- --------------- --------------- ---------------
     0.10740E+06                                                                
 -------------------------------------------------------------------------------
 
 SOLVING FOR HEAD 
 INITIAL HNEW IS AN EXACT SOLUTION.

 NO OUTPUT CONTROL FOR STRESS PERIOD   25   TIME STEP  176

 -------------------------------------------------------------------------------
                             SWR1 OUTPUT PRINT TIMES
                        STRESS PERIOD   25   TIME STEP   176
 --------------- --------------- --------------- --------------- ---------------
     0.10752E+06                                                                
 -------------------------------------------------------------------------------
 
 SOLVING FOR HEAD 
 INITIAL HNEW IS AN EXACT SOLUTION.

 NO OUTPUT CONTROL FOR STRESS PERIOD   25   TIME STEP  177

 -------------------------------------------------------------------------------
                             SWR1 OUTPUT PRINT TIMES
                        STRESS PERIOD   25   TIME STEP   177
 --------------- --------------- --------------- --------------- ---------------
     0.10764E+06                                                                
 -------------------------------------------------------------------------------
 
 SOLVING FOR HEAD 
 INITIAL HNEW IS AN EXACT SOLUTION.

 NO OUTPUT CONTROL FOR STRESS PERIOD   25   TIME STEP  178

 -------------------------------------------------------------------------------
                             SWR1 OUTPUT PRINT TIMES
                        STRESS PERIOD   25   TIME STEP   178
 --------------- --------------- --------------- --------------- ---------------
     0.10776E+06                                                                
 -------------------------------------------------------------------------------
 
 SOLVING FOR HEAD 
 INITIAL HNEW IS AN EXACT SOLUTION.

 NO OUTPUT CONTROL FOR STRESS PERIOD   25   TIME STEP  179

 -------------------------------------------------------------------------------
                             SWR1 OUTPUT PRINT TIMES
                        STRESS PERIOD   25   TIME STEP   179
 --------------- --------------- --------------- --------------- ---------------
     0.10788E+06                                                                
 -------------------------------------------------------------------------------
 
 SOLVING FOR HEAD 
 INITIAL HNEW IS AN EXACT SOLUTION.

 NO OUTPUT CONTROL FOR STRESS PERIOD   25   TIME STEP  180

 -------------------------------------------------------------------------------
                             SWR1 OUTPUT PRINT TIMES
                        STRESS PERIOD   25   TIME STEP   180
 --------------- --------------- --------------- --------------- ---------------
     0.10800E+06                                                                
 -------------------------------------------------------------------------------
 
 SOLVING FOR HEAD 
 INITIAL HNEW IS AN EXACT SOLUTION.

 NO OUTPUT CONTROL FOR STRESS PERIOD   25   TIME STEP  181

 -------------------------------------------------------------------------------
                             SWR1 OUTPUT PRINT TIMES
                        STRESS PERIOD   25   TIME STEP   181
 --------------- --------------- --------------- --------------- ---------------
     0.10812E+06                                                                
 -------------------------------------------------------------------------------
 
 SOLVING FOR HEAD 
 INITIAL HNEW IS AN EXACT SOLUTION.

 NO OUTPUT CONTROL FOR STRESS PERIOD   25   TIME STEP  182

 -------------------------------------------------------------------------------
                             SWR1 OUTPUT PRINT TIMES
                        STRESS PERIOD   25   TIME STEP   182
 --------------- --------------- --------------- --------------- ---------------
     0.10824E+06                                                                
 -------------------------------------------------------------------------------
 
 SOLVING FOR HEAD 
 INITIAL HNEW IS AN EXACT SOLUTION.

 NO OUTPUT CONTROL FOR STRESS PERIOD   25   TIME STEP  183

 -------------------------------------------------------------------------------
                             SWR1 OUTPUT PRINT TIMES
                        STRESS PERIOD   25   TIME STEP   183
 --------------- --------------- --------------- --------------- ---------------
     0.10836E+06                                                                
 -------------------------------------------------------------------------------
 
 SOLVING FOR HEAD 
 INITIAL HNEW IS AN EXACT SOLUTION.

 NO OUTPUT CONTROL FOR STRESS PERIOD   25   TIME STEP  184

 -------------------------------------------------------------------------------
                             SWR1 OUTPUT PRINT TIMES
                        STRESS PERIOD   25   TIME STEP   184
 --------------- --------------- --------------- --------------- ---------------
     0.10848E+06                                                                
 -------------------------------------------------------------------------------
 
 SOLVING FOR HEAD 
 INITIAL HNEW IS AN EXACT SOLUTION.

 NO OUTPUT CONTROL FOR STRESS PERIOD   25   TIME STEP  185

 -------------------------------------------------------------------------------
                             SWR1 OUTPUT PRINT TIMES
                        STRESS PERIOD   25   TIME STEP   185
 --------------- --------------- --------------- --------------- ---------------
     0.10860E+06                                                                
 -------------------------------------------------------------------------------
 
 SOLVING FOR HEAD 
 INITIAL HNEW IS AN EXACT SOLUTION.

 NO OUTPUT CONTROL FOR STRESS PERIOD   25   TIME STEP  186

 -------------------------------------------------------------------------------
                             SWR1 OUTPUT PRINT TIMES
                        STRESS PERIOD   25   TIME STEP   186
 --------------- --------------- --------------- --------------- ---------------
     0.10872E+06                                                                
 -------------------------------------------------------------------------------
 
 SOLVING FOR HEAD 
 INITIAL HNEW IS AN EXACT SOLUTION.

 NO OUTPUT CONTROL FOR STRESS PERIOD   25   TIME STEP  187

 -------------------------------------------------------------------------------
                             SWR1 OUTPUT PRINT TIMES
                        STRESS PERIOD   25   TIME STEP   187
 --------------- --------------- --------------- --------------- ---------------
     0.10884E+06                                                                
 -------------------------------------------------------------------------------
 
 SOLVING FOR HEAD 
 INITIAL HNEW IS AN EXACT SOLUTION.

 NO OUTPUT CONTROL FOR STRESS PERIOD   25   TIME STEP  188

 -------------------------------------------------------------------------------
                             SWR1 OUTPUT PRINT TIMES
                        STRESS PERIOD   25   TIME STEP   188
 --------------- --------------- --------------- --------------- ---------------
     0.10896E+06                                                                
 -------------------------------------------------------------------------------
 
 SOLVING FOR HEAD 
 INITIAL HNEW IS AN EXACT SOLUTION.

 NO OUTPUT CONTROL FOR STRESS PERIOD   25   TIME STEP  189

 -------------------------------------------------------------------------------
                             SWR1 OUTPUT PRINT TIMES
                        STRESS PERIOD   25   TIME STEP   189
 --------------- --------------- --------------- --------------- ---------------
     0.10908E+06                                                                
 -------------------------------------------------------------------------------
 
 SOLVING FOR HEAD 
 INITIAL HNEW IS AN EXACT SOLUTION.

 NO OUTPUT CONTROL FOR STRESS PERIOD   25   TIME STEP  190

 -------------------------------------------------------------------------------
                             SWR1 OUTPUT PRINT TIMES
                        STRESS PERIOD   25   TIME STEP   190
 --------------- --------------- --------------- --------------- ---------------
     0.10920E+06                                                                
 -------------------------------------------------------------------------------
 
 SOLVING FOR HEAD 
 INITIAL HNEW IS AN EXACT SOLUTION.

 NO OUTPUT CONTROL FOR STRESS PERIOD   25   TIME STEP  191

 -------------------------------------------------------------------------------
                             SWR1 OUTPUT PRINT TIMES
                        STRESS PERIOD   25   TIME STEP   191
 --------------- --------------- --------------- --------------- ---------------
     0.10932E+06                                                                
 -------------------------------------------------------------------------------
 
 SOLVING FOR HEAD 
 INITIAL HNEW IS AN EXACT SOLUTION.

 NO OUTPUT CONTROL FOR STRESS PERIOD   25   TIME STEP  192

 -------------------------------------------------------------------------------
                             SWR1 OUTPUT PRINT TIMES
                        STRESS PERIOD   25   TIME STEP   192
 --------------- --------------- --------------- --------------- ---------------
     0.10944E+06                                                                
 -------------------------------------------------------------------------------
 
 SOLVING FOR HEAD 
 INITIAL HNEW IS AN EXACT SOLUTION.

 NO OUTPUT CONTROL FOR STRESS PERIOD   25   TIME STEP  193

 -------------------------------------------------------------------------------
                             SWR1 OUTPUT PRINT TIMES
                        STRESS PERIOD   25   TIME STEP   193
 --------------- --------------- --------------- --------------- ---------------
     0.10956E+06                                                                
 -------------------------------------------------------------------------------
 
 SOLVING FOR HEAD 
 INITIAL HNEW IS AN EXACT SOLUTION.

 NO OUTPUT CONTROL FOR STRESS PERIOD   25   TIME STEP  194

 -------------------------------------------------------------------------------
                             SWR1 OUTPUT PRINT TIMES
                        STRESS PERIOD   25   TIME STEP   194
 --------------- --------------- --------------- --------------- ---------------
     0.10968E+06                                                                
 -------------------------------------------------------------------------------
 
 SOLVING FOR HEAD 
 INITIAL HNEW IS AN EXACT SOLUTION.

 NO OUTPUT CONTROL FOR STRESS PERIOD   25   TIME STEP  195

 -------------------------------------------------------------------------------
                             SWR1 OUTPUT PRINT TIMES
                        STRESS PERIOD   25   TIME STEP   195
 --------------- --------------- --------------- --------------- ---------------
     0.10980E+06                                                                
 -------------------------------------------------------------------------------
 
 SOLVING FOR HEAD 
 INITIAL HNEW IS AN EXACT SOLUTION.

 NO OUTPUT CONTROL FOR STRESS PERIOD   25   TIME STEP  196

 -------------------------------------------------------------------------------
                             SWR1 OUTPUT PRINT TIMES
                        STRESS PERIOD   25   TIME STEP   196
 --------------- --------------- --------------- --------------- ---------------
     0.10992E+06                                                                
 -------------------------------------------------------------------------------
 
 SOLVING FOR HEAD 
 INITIAL HNEW IS AN EXACT SOLUTION.

 NO OUTPUT CONTROL FOR STRESS PERIOD   25   TIME STEP  197

 -------------------------------------------------------------------------------
                             SWR1 OUTPUT PRINT TIMES
                        STRESS PERIOD   25   TIME STEP   197
 --------------- --------------- --------------- --------------- ---------------
     0.11004E+06                                                                
 -------------------------------------------------------------------------------
 
 SOLVING FOR HEAD 
 INITIAL HNEW IS AN EXACT SOLUTION.

 NO OUTPUT CONTROL FOR STRESS PERIOD   25   TIME STEP  198

 -------------------------------------------------------------------------------
                             SWR1 OUTPUT PRINT TIMES
                        STRESS PERIOD   25   TIME STEP   198
 --------------- --------------- --------------- --------------- ---------------
     0.11016E+06                                                                
 -------------------------------------------------------------------------------
 
 SOLVING FOR HEAD 
 INITIAL HNEW IS AN EXACT SOLUTION.

 NO OUTPUT CONTROL FOR STRESS PERIOD   25   TIME STEP  199

 -------------------------------------------------------------------------------
                             SWR1 OUTPUT PRINT TIMES
                        STRESS PERIOD   25   TIME STEP   199
 --------------- --------------- --------------- --------------- ---------------
     0.11028E+06                                                                
 -------------------------------------------------------------------------------
 
 SOLVING FOR HEAD 
 INITIAL HNEW IS AN EXACT SOLUTION.

 NO OUTPUT CONTROL FOR STRESS PERIOD   25   TIME STEP  200

 -------------------------------------------------------------------------------
                             SWR1 OUTPUT PRINT TIMES
                        STRESS PERIOD   25   TIME STEP   200
 --------------- --------------- --------------- --------------- ---------------
     0.11040E+06                                                                
 -------------------------------------------------------------------------------
 
 SOLVING FOR HEAD 
 INITIAL HNEW IS AN EXACT SOLUTION.

 NO OUTPUT CONTROL FOR STRESS PERIOD   25   TIME STEP  201

 -------------------------------------------------------------------------------
                             SWR1 OUTPUT PRINT TIMES
                        STRESS PERIOD   25   TIME STEP   201
 --------------- --------------- --------------- --------------- ---------------
     0.11052E+06                                                                
 -------------------------------------------------------------------------------
 
 SOLVING FOR HEAD 
 INITIAL HNEW IS AN EXACT SOLUTION.

 NO OUTPUT CONTROL FOR STRESS PERIOD   25   TIME STEP  202

 -------------------------------------------------------------------------------
                             SWR1 OUTPUT PRINT TIMES
                        STRESS PERIOD   25   TIME STEP   202
 --------------- --------------- --------------- --------------- ---------------
     0.11064E+06                                                                
 -------------------------------------------------------------------------------
 
 SOLVING FOR HEAD 
 INITIAL HNEW IS AN EXACT SOLUTION.

 NO OUTPUT CONTROL FOR STRESS PERIOD   25   TIME STEP  203

 -------------------------------------------------------------------------------
                             SWR1 OUTPUT PRINT TIMES
                        STRESS PERIOD   25   TIME STEP   203
 --------------- --------------- --------------- --------------- ---------------
     0.11076E+06                                                                
 -------------------------------------------------------------------------------
 
 SOLVING FOR HEAD 
 INITIAL HNEW IS AN EXACT SOLUTION.

 NO OUTPUT CONTROL FOR STRESS PERIOD   25   TIME STEP  204

 -------------------------------------------------------------------------------
                             SWR1 OUTPUT PRINT TIMES
                        STRESS PERIOD   25   TIME STEP   204
 --------------- --------------- --------------- --------------- ---------------
     0.11088E+06                                                                
 -------------------------------------------------------------------------------
 
 SOLVING FOR HEAD 
 INITIAL HNEW IS AN EXACT SOLUTION.

 NO OUTPUT CONTROL FOR STRESS PERIOD   25   TIME STEP  205

 -------------------------------------------------------------------------------
                             SWR1 OUTPUT PRINT TIMES
                        STRESS PERIOD   25   TIME STEP   205
 --------------- --------------- --------------- --------------- ---------------
     0.11100E+06                                                                
 -------------------------------------------------------------------------------
 
 SOLVING FOR HEAD 
 INITIAL HNEW IS AN EXACT SOLUTION.

 NO OUTPUT CONTROL FOR STRESS PERIOD   25   TIME STEP  206

 -------------------------------------------------------------------------------
                             SWR1 OUTPUT PRINT TIMES
                        STRESS PERIOD   25   TIME STEP   206
 --------------- --------------- --------------- --------------- ---------------
     0.11112E+06                                                                
 -------------------------------------------------------------------------------
 
 SOLVING FOR HEAD 
 INITIAL HNEW IS AN EXACT SOLUTION.

 NO OUTPUT CONTROL FOR STRESS PERIOD   25   TIME STEP  207

 -------------------------------------------------------------------------------
                             SWR1 OUTPUT PRINT TIMES
                        STRESS PERIOD   25   TIME STEP   207
 --------------- --------------- --------------- --------------- ---------------
     0.11124E+06                                                                
 -------------------------------------------------------------------------------
 
 SOLVING FOR HEAD 
 INITIAL HNEW IS AN EXACT SOLUTION.

 NO OUTPUT CONTROL FOR STRESS PERIOD   25   TIME STEP  208

 -------------------------------------------------------------------------------
                             SWR1 OUTPUT PRINT TIMES
                        STRESS PERIOD   25   TIME STEP   208
 --------------- --------------- --------------- --------------- ---------------
     0.11136E+06                                                                
 -------------------------------------------------------------------------------
 
 SOLVING FOR HEAD 
 INITIAL HNEW IS AN EXACT SOLUTION.

 NO OUTPUT CONTROL FOR STRESS PERIOD   25   TIME STEP  209

 -------------------------------------------------------------------------------
                             SWR1 OUTPUT PRINT TIMES
                        STRESS PERIOD   25   TIME STEP   209
 --------------- --------------- --------------- --------------- ---------------
     0.11148E+06                                                                
 -------------------------------------------------------------------------------
 
 SOLVING FOR HEAD 
 INITIAL HNEW IS AN EXACT SOLUTION.

 NO OUTPUT CONTROL FOR STRESS PERIOD   25   TIME STEP  210

 -------------------------------------------------------------------------------
                             SWR1 OUTPUT PRINT TIMES
                        STRESS PERIOD   25   TIME STEP   210
 --------------- --------------- --------------- --------------- ---------------
     0.11160E+06                                                                
 -------------------------------------------------------------------------------
 
 SOLVING FOR HEAD 
 INITIAL HNEW IS AN EXACT SOLUTION.

 NO OUTPUT CONTROL FOR STRESS PERIOD   25   TIME STEP  211

 -------------------------------------------------------------------------------
                             SWR1 OUTPUT PRINT TIMES
                        STRESS PERIOD   25   TIME STEP   211
 --------------- --------------- --------------- --------------- ---------------
     0.11172E+06                                                                
 -------------------------------------------------------------------------------
 
 SOLVING FOR HEAD 
 INITIAL HNEW IS AN EXACT SOLUTION.

 NO OUTPUT CONTROL FOR STRESS PERIOD   25   TIME STEP  212

 -------------------------------------------------------------------------------
                             SWR1 OUTPUT PRINT TIMES
                        STRESS PERIOD   25   TIME STEP   212
 --------------- --------------- --------------- --------------- ---------------
     0.11184E+06                                                                
 -------------------------------------------------------------------------------
 
 SOLVING FOR HEAD 
 INITIAL HNEW IS AN EXACT SOLUTION.

 NO OUTPUT CONTROL FOR STRESS PERIOD   25   TIME STEP  213

 -------------------------------------------------------------------------------
                             SWR1 OUTPUT PRINT TIMES
                        STRESS PERIOD   25   TIME STEP   213
 --------------- --------------- --------------- --------------- ---------------
     0.11196E+06                                                                
 -------------------------------------------------------------------------------
 
 SOLVING FOR HEAD 
 INITIAL HNEW IS AN EXACT SOLUTION.

 NO OUTPUT CONTROL FOR STRESS PERIOD   25   TIME STEP  214

 -------------------------------------------------------------------------------
                             SWR1 OUTPUT PRINT TIMES
                        STRESS PERIOD   25   TIME STEP   214
 --------------- --------------- --------------- --------------- ---------------
     0.11208E+06                                                                
 -------------------------------------------------------------------------------
 
 SOLVING FOR HEAD 
 INITIAL HNEW IS AN EXACT SOLUTION.

 NO OUTPUT CONTROL FOR STRESS PERIOD   25   TIME STEP  215

 -------------------------------------------------------------------------------
                             SWR1 OUTPUT PRINT TIMES
                        STRESS PERIOD   25   TIME STEP   215
 --------------- --------------- --------------- --------------- ---------------
     0.11220E+06                                                                
 -------------------------------------------------------------------------------
 
 SOLVING FOR HEAD 
 INITIAL HNEW IS AN EXACT SOLUTION.

 NO OUTPUT CONTROL FOR STRESS PERIOD   25   TIME STEP  216

 -------------------------------------------------------------------------------
                             SWR1 OUTPUT PRINT TIMES
                        STRESS PERIOD   25   TIME STEP   216
 --------------- --------------- --------------- --------------- ---------------
     0.11232E+06                                                                
 -------------------------------------------------------------------------------
 
 SOLVING FOR HEAD 
 INITIAL HNEW IS AN EXACT SOLUTION.

 NO OUTPUT CONTROL FOR STRESS PERIOD   25   TIME STEP  217

 -------------------------------------------------------------------------------
                             SWR1 OUTPUT PRINT TIMES
                        STRESS PERIOD   25   TIME STEP   217
 --------------- --------------- --------------- --------------- ---------------
     0.11244E+06                                                                
 -------------------------------------------------------------------------------
 
 SOLVING FOR HEAD 
 INITIAL HNEW IS AN EXACT SOLUTION.

 NO OUTPUT CONTROL FOR STRESS PERIOD   25   TIME STEP  218

 -------------------------------------------------------------------------------
                             SWR1 OUTPUT PRINT TIMES
                        STRESS PERIOD   25   TIME STEP   218
 --------------- --------------- --------------- --------------- ---------------
     0.11256E+06                                                                
 -------------------------------------------------------------------------------
 
 SOLVING FOR HEAD 
 INITIAL HNEW IS AN EXACT SOLUTION.

 NO OUTPUT CONTROL FOR STRESS PERIOD   25   TIME STEP  219

 -------------------------------------------------------------------------------
                             SWR1 OUTPUT PRINT TIMES
                        STRESS PERIOD   25   TIME STEP   219
 --------------- --------------- --------------- --------------- ---------------
     0.11268E+06                                                                
 -------------------------------------------------------------------------------
 
 SOLVING FOR HEAD 
 INITIAL HNEW IS AN EXACT SOLUTION.

 NO OUTPUT CONTROL FOR STRESS PERIOD   25   TIME STEP  220

 -------------------------------------------------------------------------------
                             SWR1 OUTPUT PRINT TIMES
                        STRESS PERIOD   25   TIME STEP   220
 --------------- --------------- --------------- --------------- ---------------
     0.11280E+06                                                                
 -------------------------------------------------------------------------------
 
 SOLVING FOR HEAD 
 INITIAL HNEW IS AN EXACT SOLUTION.

 NO OUTPUT CONTROL FOR STRESS PERIOD   25   TIME STEP  221

 -------------------------------------------------------------------------------
                             SWR1 OUTPUT PRINT TIMES
                        STRESS PERIOD   25   TIME STEP   221
 --------------- --------------- --------------- --------------- ---------------
     0.11292E+06                                                                
 -------------------------------------------------------------------------------
 
 SOLVING FOR HEAD 
 INITIAL HNEW IS AN EXACT SOLUTION.

 NO OUTPUT CONTROL FOR STRESS PERIOD   25   TIME STEP  222

 -------------------------------------------------------------------------------
                             SWR1 OUTPUT PRINT TIMES
                        STRESS PERIOD   25   TIME STEP   222
 --------------- --------------- --------------- --------------- ---------------
     0.11304E+06                                                                
 -------------------------------------------------------------------------------
 
 SOLVING FOR HEAD 
 INITIAL HNEW IS AN EXACT SOLUTION.

 NO OUTPUT CONTROL FOR STRESS PERIOD   25   TIME STEP  223

 -------------------------------------------------------------------------------
                             SWR1 OUTPUT PRINT TIMES
                        STRESS PERIOD   25   TIME STEP   223
 --------------- --------------- --------------- --------------- ---------------
     0.11316E+06                                                                
 -------------------------------------------------------------------------------
 
 SOLVING FOR HEAD 
 INITIAL HNEW IS AN EXACT SOLUTION.

 NO OUTPUT CONTROL FOR STRESS PERIOD   25   TIME STEP  224

 -------------------------------------------------------------------------------
                             SWR1 OUTPUT PRINT TIMES
                        STRESS PERIOD   25   TIME STEP   224
 --------------- --------------- --------------- --------------- ---------------
     0.11328E+06                                                                
 -------------------------------------------------------------------------------
 
 SOLVING FOR HEAD 
 INITIAL HNEW IS AN EXACT SOLUTION.

 NO OUTPUT CONTROL FOR STRESS PERIOD   25   TIME STEP  225

 -------------------------------------------------------------------------------
                             SWR1 OUTPUT PRINT TIMES
                        STRESS PERIOD   25   TIME STEP   225
 --------------- --------------- --------------- --------------- ---------------
     0.11340E+06                                                                
 -------------------------------------------------------------------------------
 
 SOLVING FOR HEAD 
 INITIAL HNEW IS AN EXACT SOLUTION.

 NO OUTPUT CONTROL FOR STRESS PERIOD   25   TIME STEP  226

 -------------------------------------------------------------------------------
                             SWR1 OUTPUT PRINT TIMES
                        STRESS PERIOD   25   TIME STEP   226
 --------------- --------------- --------------- --------------- ---------------
     0.11352E+06                                                                
 -------------------------------------------------------------------------------
 
 SOLVING FOR HEAD 
 INITIAL HNEW IS AN EXACT SOLUTION.

 NO OUTPUT CONTROL FOR STRESS PERIOD   25   TIME STEP  227

 -------------------------------------------------------------------------------
                             SWR1 OUTPUT PRINT TIMES
                        STRESS PERIOD   25   TIME STEP   227
 --------------- --------------- --------------- --------------- ---------------
     0.11364E+06                                                                
 -------------------------------------------------------------------------------
 
 SOLVING FOR HEAD 
 INITIAL HNEW IS AN EXACT SOLUTION.

 NO OUTPUT CONTROL FOR STRESS PERIOD   25   TIME STEP  228

 -------------------------------------------------------------------------------
                             SWR1 OUTPUT PRINT TIMES
                        STRESS PERIOD   25   TIME STEP   228
 --------------- --------------- --------------- --------------- ---------------
     0.11376E+06                                                                
 -------------------------------------------------------------------------------
 
 SOLVING FOR HEAD 
 INITIAL HNEW IS AN EXACT SOLUTION.

 NO OUTPUT CONTROL FOR STRESS PERIOD   25   TIME STEP  229

 -------------------------------------------------------------------------------
                             SWR1 OUTPUT PRINT TIMES
                        STRESS PERIOD   25   TIME STEP   229
 --------------- --------------- --------------- --------------- ---------------
     0.11388E+06                                                                
 -------------------------------------------------------------------------------
 
 SOLVING FOR HEAD 
 INITIAL HNEW IS AN EXACT SOLUTION.

 NO OUTPUT CONTROL FOR STRESS PERIOD   25   TIME STEP  230

 -------------------------------------------------------------------------------
                             SWR1 OUTPUT PRINT TIMES
                        STRESS PERIOD   25   TIME STEP   230
 --------------- --------------- --------------- --------------- ---------------
     0.11400E+06                                                                
 -------------------------------------------------------------------------------
 
 SOLVING FOR HEAD 
 INITIAL HNEW IS AN EXACT SOLUTION.

 NO OUTPUT CONTROL FOR STRESS PERIOD   25   TIME STEP  231

 -------------------------------------------------------------------------------
                             SWR1 OUTPUT PRINT TIMES
                        STRESS PERIOD   25   TIME STEP   231
 --------------- --------------- --------------- --------------- ---------------
     0.11412E+06                                                                
 -------------------------------------------------------------------------------
 
 SOLVING FOR HEAD 
 INITIAL HNEW IS AN EXACT SOLUTION.

 NO OUTPUT CONTROL FOR STRESS PERIOD   25   TIME STEP  232

 -------------------------------------------------------------------------------
                             SWR1 OUTPUT PRINT TIMES
                        STRESS PERIOD   25   TIME STEP   232
 --------------- --------------- --------------- --------------- ---------------
     0.11424E+06                                                                
 -------------------------------------------------------------------------------
 
 SOLVING FOR HEAD 
 INITIAL HNEW IS AN EXACT SOLUTION.

 NO OUTPUT CONTROL FOR STRESS PERIOD   25   TIME STEP  233

 -------------------------------------------------------------------------------
                             SWR1 OUTPUT PRINT TIMES
                        STRESS PERIOD   25   TIME STEP   233
 --------------- --------------- --------------- --------------- ---------------
     0.11436E+06                                                                
 -------------------------------------------------------------------------------
 
 SOLVING FOR HEAD 
 INITIAL HNEW IS AN EXACT SOLUTION.

 NO OUTPUT CONTROL FOR STRESS PERIOD   25   TIME STEP  234

 -------------------------------------------------------------------------------
                             SWR1 OUTPUT PRINT TIMES
                        STRESS PERIOD   25   TIME STEP   234
 --------------- --------------- --------------- --------------- ---------------
     0.11448E+06                                                                
 -------------------------------------------------------------------------------
 
 SOLVING FOR HEAD 
 INITIAL HNEW IS AN EXACT SOLUTION.

 NO OUTPUT CONTROL FOR STRESS PERIOD   25   TIME STEP  235

 -------------------------------------------------------------------------------
                             SWR1 OUTPUT PRINT TIMES
                        STRESS PERIOD   25   TIME STEP   235
 --------------- --------------- --------------- --------------- ---------------
     0.11460E+06                                                                
 -------------------------------------------------------------------------------
 
 SOLVING FOR HEAD 
 INITIAL HNEW IS AN EXACT SOLUTION.

 NO OUTPUT CONTROL FOR STRESS PERIOD   25   TIME STEP  236

 -------------------------------------------------------------------------------
                             SWR1 OUTPUT PRINT TIMES
                        STRESS PERIOD   25   TIME STEP   236
 --------------- --------------- --------------- --------------- ---------------
     0.11472E+06                                                                
 -------------------------------------------------------------------------------
 
 SOLVING FOR HEAD 
 INITIAL HNEW IS AN EXACT SOLUTION.

 NO OUTPUT CONTROL FOR STRESS PERIOD   25   TIME STEP  237

 -------------------------------------------------------------------------------
                             SWR1 OUTPUT PRINT TIMES
                        STRESS PERIOD   25   TIME STEP   237
 --------------- --------------- --------------- --------------- ---------------
     0.11484E+06                                                                
 -------------------------------------------------------------------------------
 
 SOLVING FOR HEAD 
 INITIAL HNEW IS AN EXACT SOLUTION.

 NO OUTPUT CONTROL FOR STRESS PERIOD   25   TIME STEP  238

 -------------------------------------------------------------------------------
                             SWR1 OUTPUT PRINT TIMES
                        STRESS PERIOD   25   TIME STEP   238
 --------------- --------------- --------------- --------------- ---------------
     0.11496E+06                                                                
 -------------------------------------------------------------------------------
 
 SOLVING FOR HEAD 
 INITIAL HNEW IS AN EXACT SOLUTION.

 NO OUTPUT CONTROL FOR STRESS PERIOD   25   TIME STEP  239

 -------------------------------------------------------------------------------
                             SWR1 OUTPUT PRINT TIMES
                        STRESS PERIOD   25   TIME STEP   239
 --------------- --------------- --------------- --------------- ---------------
     0.11508E+06                                                                
 -------------------------------------------------------------------------------
 
 SOLVING FOR HEAD 
 INITIAL HNEW IS AN EXACT SOLUTION.

 NO OUTPUT CONTROL FOR STRESS PERIOD   25   TIME STEP  240

 -------------------------------------------------------------------------------
                             SWR1 OUTPUT PRINT TIMES
                        STRESS PERIOD   25   TIME STEP   240
 --------------- --------------- --------------- --------------- ---------------
     0.11520E+06                                                                
 -------------------------------------------------------------------------------
 
 SOLVING FOR HEAD 
 INITIAL HNEW IS AN EXACT SOLUTION.

 NO OUTPUT CONTROL FOR STRESS PERIOD   25   TIME STEP  241

 -------------------------------------------------------------------------------
                             SWR1 OUTPUT PRINT TIMES
                        STRESS PERIOD   25   TIME STEP   241
 --------------- --------------- --------------- --------------- ---------------
     0.11532E+06                                                                
 -------------------------------------------------------------------------------
 
 SOLVING FOR HEAD 
 INITIAL HNEW IS AN EXACT SOLUTION.

 NO OUTPUT CONTROL FOR STRESS PERIOD   25   TIME STEP  242

 -------------------------------------------------------------------------------
                             SWR1 OUTPUT PRINT TIMES
                        STRESS PERIOD   25   TIME STEP   242
 --------------- --------------- --------------- --------------- ---------------
     0.11544E+06                                                                
 -------------------------------------------------------------------------------
 
 SOLVING FOR HEAD 
 INITIAL HNEW IS AN EXACT SOLUTION.

 NO OUTPUT CONTROL FOR STRESS PERIOD   25   TIME STEP  243

 -------------------------------------------------------------------------------
                             SWR1 OUTPUT PRINT TIMES
                        STRESS PERIOD   25   TIME STEP   243
 --------------- --------------- --------------- --------------- ---------------
     0.11556E+06                                                                
 -------------------------------------------------------------------------------
 
 SOLVING FOR HEAD 
 INITIAL HNEW IS AN EXACT SOLUTION.

 NO OUTPUT CONTROL FOR STRESS PERIOD   25   TIME STEP  244

 -------------------------------------------------------------------------------
                             SWR1 OUTPUT PRINT TIMES
                        STRESS PERIOD   25   TIME STEP   244
 --------------- --------------- --------------- --------------- ---------------
     0.11568E+06                                                                
 -------------------------------------------------------------------------------
 
 SOLVING FOR HEAD 
 INITIAL HNEW IS AN EXACT SOLUTION.

 NO OUTPUT CONTROL FOR STRESS PERIOD   25   TIME STEP  245

 -------------------------------------------------------------------------------
                             SWR1 OUTPUT PRINT TIMES
                        STRESS PERIOD   25   TIME STEP   245
 --------------- --------------- --------------- --------------- ---------------
     0.11580E+06                                                                
 -------------------------------------------------------------------------------
 
 SOLVING FOR HEAD 
 INITIAL HNEW IS AN EXACT SOLUTION.

 NO OUTPUT CONTROL FOR STRESS PERIOD   25   TIME STEP  246

 -------------------------------------------------------------------------------
                             SWR1 OUTPUT PRINT TIMES
                        STRESS PERIOD   25   TIME STEP   246
 --------------- --------------- --------------- --------------- ---------------
     0.11592E+06                                                                
 -------------------------------------------------------------------------------
 
 SOLVING FOR HEAD 
 INITIAL HNEW IS AN EXACT SOLUTION.

 NO OUTPUT CONTROL FOR STRESS PERIOD   25   TIME STEP  247

 -------------------------------------------------------------------------------
                             SWR1 OUTPUT PRINT TIMES
                        STRESS PERIOD   25   TIME STEP   247
 --------------- --------------- --------------- --------------- ---------------
     0.11604E+06                                                                
 -------------------------------------------------------------------------------
 
 SOLVING FOR HEAD 
 INITIAL HNEW IS AN EXACT SOLUTION.

 NO OUTPUT CONTROL FOR STRESS PERIOD   25   TIME STEP  248

 -------------------------------------------------------------------------------
                             SWR1 OUTPUT PRINT TIMES
                        STRESS PERIOD   25   TIME STEP   248
 --------------- --------------- --------------- --------------- ---------------
     0.11616E+06                                                                
 -------------------------------------------------------------------------------
 
 SOLVING FOR HEAD 
 INITIAL HNEW IS AN EXACT SOLUTION.

 NO OUTPUT CONTROL FOR STRESS PERIOD   25   TIME STEP  249

 -------------------------------------------------------------------------------
                             SWR1 OUTPUT PRINT TIMES
                        STRESS PERIOD   25   TIME STEP   249
 --------------- --------------- --------------- --------------- ---------------
     0.11628E+06                                                                
 -------------------------------------------------------------------------------
 
 SOLVING FOR HEAD 
 INITIAL HNEW IS AN EXACT SOLUTION.

 NO OUTPUT CONTROL FOR STRESS PERIOD   25   TIME STEP  250

 -------------------------------------------------------------------------------
                             SWR1 OUTPUT PRINT TIMES
                        STRESS PERIOD   25   TIME STEP   250
 --------------- --------------- --------------- --------------- ---------------
     0.11640E+06                                                                
 -------------------------------------------------------------------------------
 
 SOLVING FOR HEAD 
 INITIAL HNEW IS AN EXACT SOLUTION.

 NO OUTPUT CONTROL FOR STRESS PERIOD   25   TIME STEP  251

 -------------------------------------------------------------------------------
                             SWR1 OUTPUT PRINT TIMES
                        STRESS PERIOD   25   TIME STEP   251
 --------------- --------------- --------------- --------------- ---------------
     0.11652E+06                                                                
 -------------------------------------------------------------------------------
 
 SOLVING FOR HEAD 
 INITIAL HNEW IS AN EXACT SOLUTION.

 NO OUTPUT CONTROL FOR STRESS PERIOD   25   TIME STEP  252

 -------------------------------------------------------------------------------
                             SWR1 OUTPUT PRINT TIMES
                        STRESS PERIOD   25   TIME STEP   252
 --------------- --------------- --------------- --------------- ---------------
     0.11664E+06                                                                
 -------------------------------------------------------------------------------
 
 SOLVING FOR HEAD 
 INITIAL HNEW IS AN EXACT SOLUTION.

 NO OUTPUT CONTROL FOR STRESS PERIOD   25   TIME STEP  253

 -------------------------------------------------------------------------------
                             SWR1 OUTPUT PRINT TIMES
                        STRESS PERIOD   25   TIME STEP   253
 --------------- --------------- --------------- --------------- ---------------
     0.11676E+06                                                                
 -------------------------------------------------------------------------------
 
 SOLVING FOR HEAD 
 INITIAL HNEW IS AN EXACT SOLUTION.

 NO OUTPUT CONTROL FOR STRESS PERIOD   25   TIME STEP  254

 -------------------------------------------------------------------------------
                             SWR1 OUTPUT PRINT TIMES
                        STRESS PERIOD   25   TIME STEP   254
 --------------- --------------- --------------- --------------- ---------------
     0.11688E+06                                                                
 -------------------------------------------------------------------------------
 
 SOLVING FOR HEAD 
 INITIAL HNEW IS AN EXACT SOLUTION.

 NO OUTPUT CONTROL FOR STRESS PERIOD   25   TIME STEP  255

 -------------------------------------------------------------------------------
                             SWR1 OUTPUT PRINT TIMES
                        STRESS PERIOD   25   TIME STEP   255
 --------------- --------------- --------------- --------------- ---------------
     0.11700E+06                                                                
 -------------------------------------------------------------------------------
 
 SOLVING FOR HEAD 
 INITIAL HNEW IS AN EXACT SOLUTION.

 NO OUTPUT CONTROL FOR STRESS PERIOD   25   TIME STEP  256

 -------------------------------------------------------------------------------
                             SWR1 OUTPUT PRINT TIMES
                        STRESS PERIOD   25   TIME STEP   256
 --------------- --------------- --------------- --------------- ---------------
     0.11712E+06                                                                
 -------------------------------------------------------------------------------
 
 SOLVING FOR HEAD 
 INITIAL HNEW IS AN EXACT SOLUTION.

 NO OUTPUT CONTROL FOR STRESS PERIOD   25   TIME STEP  257

 -------------------------------------------------------------------------------
                             SWR1 OUTPUT PRINT TIMES
                        STRESS PERIOD   25   TIME STEP   257
 --------------- --------------- --------------- --------------- ---------------
     0.11724E+06                                                                
 -------------------------------------------------------------------------------
 
 SOLVING FOR HEAD 
 INITIAL HNEW IS AN EXACT SOLUTION.

 NO OUTPUT CONTROL FOR STRESS PERIOD   25   TIME STEP  258

 -------------------------------------------------------------------------------
                             SWR1 OUTPUT PRINT TIMES
                        STRESS PERIOD   25   TIME STEP   258
 --------------- --------------- --------------- --------------- ---------------
     0.11736E+06                                                                
 -------------------------------------------------------------------------------
 
 SOLVING FOR HEAD 
 INITIAL HNEW IS AN EXACT SOLUTION.

 NO OUTPUT CONTROL FOR STRESS PERIOD   25   TIME STEP  259

 -------------------------------------------------------------------------------
                             SWR1 OUTPUT PRINT TIMES
                        STRESS PERIOD   25   TIME STEP   259
 --------------- --------------- --------------- --------------- ---------------
     0.11748E+06                                                                
 -------------------------------------------------------------------------------
 
 SOLVING FOR HEAD 
 INITIAL HNEW IS AN EXACT SOLUTION.

 NO OUTPUT CONTROL FOR STRESS PERIOD   25   TIME STEP  260

 -------------------------------------------------------------------------------
                             SWR1 OUTPUT PRINT TIMES
                        STRESS PERIOD   25   TIME STEP   260
 --------------- --------------- --------------- --------------- ---------------
     0.11760E+06                                                                
 -------------------------------------------------------------------------------
 
 SOLVING FOR HEAD 
 INITIAL HNEW IS AN EXACT SOLUTION.

 NO OUTPUT CONTROL FOR STRESS PERIOD   25   TIME STEP  261

 -------------------------------------------------------------------------------
                             SWR1 OUTPUT PRINT TIMES
                        STRESS PERIOD   25   TIME STEP   261
 --------------- --------------- --------------- --------------- ---------------
     0.11772E+06                                                                
 -------------------------------------------------------------------------------
 
 SOLVING FOR HEAD 
 INITIAL HNEW IS AN EXACT SOLUTION.

 NO OUTPUT CONTROL FOR STRESS PERIOD   25   TIME STEP  262

 -------------------------------------------------------------------------------
                             SWR1 OUTPUT PRINT TIMES
                        STRESS PERIOD   25   TIME STEP   262
 --------------- --------------- --------------- --------------- ---------------
     0.11784E+06                                                                
 -------------------------------------------------------------------------------
 
 SOLVING FOR HEAD 
 INITIAL HNEW IS AN EXACT SOLUTION.

 NO OUTPUT CONTROL FOR STRESS PERIOD   25   TIME STEP  263

 -------------------------------------------------------------------------------
                             SWR1 OUTPUT PRINT TIMES
                        STRESS PERIOD   25   TIME STEP   263
 --------------- --------------- --------------- --------------- ---------------
     0.11796E+06                                                                
 -------------------------------------------------------------------------------
 
 SOLVING FOR HEAD 
 INITIAL HNEW IS AN EXACT SOLUTION.

 NO OUTPUT CONTROL FOR STRESS PERIOD   25   TIME STEP  264

 -------------------------------------------------------------------------------
                             SWR1 OUTPUT PRINT TIMES
                        STRESS PERIOD   25   TIME STEP   264
 --------------- --------------- --------------- --------------- ---------------
     0.11808E+06                                                                
 -------------------------------------------------------------------------------
 
 SOLVING FOR HEAD 
 INITIAL HNEW IS AN EXACT SOLUTION.

 NO OUTPUT CONTROL FOR STRESS PERIOD   25   TIME STEP  265

 -------------------------------------------------------------------------------
                             SWR1 OUTPUT PRINT TIMES
                        STRESS PERIOD   25   TIME STEP   265
 --------------- --------------- --------------- --------------- ---------------
     0.11820E+06                                                                
 -------------------------------------------------------------------------------
 
 SOLVING FOR HEAD 
 INITIAL HNEW IS AN EXACT SOLUTION.

 NO OUTPUT CONTROL FOR STRESS PERIOD   25   TIME STEP  266

 -------------------------------------------------------------------------------
                             SWR1 OUTPUT PRINT TIMES
                        STRESS PERIOD   25   TIME STEP   266
 --------------- --------------- --------------- --------------- ---------------
     0.11832E+06                                                                
 -------------------------------------------------------------------------------
 
 SOLVING FOR HEAD 
 INITIAL HNEW IS AN EXACT SOLUTION.

 NO OUTPUT CONTROL FOR STRESS PERIOD   25   TIME STEP  267

 -------------------------------------------------------------------------------
                             SWR1 OUTPUT PRINT TIMES
                        STRESS PERIOD   25   TIME STEP   267
 --------------- --------------- --------------- --------------- ---------------
     0.11844E+06                                                                
 -------------------------------------------------------------------------------
 
 SOLVING FOR HEAD 
 INITIAL HNEW IS AN EXACT SOLUTION.

 NO OUTPUT CONTROL FOR STRESS PERIOD   25   TIME STEP  268

 -------------------------------------------------------------------------------
                             SWR1 OUTPUT PRINT TIMES
                        STRESS PERIOD   25   TIME STEP   268
 --------------- --------------- --------------- --------------- ---------------
     0.11856E+06                                                                
 -------------------------------------------------------------------------------
 
 SOLVING FOR HEAD 
 INITIAL HNEW IS AN EXACT SOLUTION.

 NO OUTPUT CONTROL FOR STRESS PERIOD   25   TIME STEP  269

 -------------------------------------------------------------------------------
                             SWR1 OUTPUT PRINT TIMES
                        STRESS PERIOD   25   TIME STEP   269
 --------------- --------------- --------------- --------------- ---------------
     0.11868E+06                                                                
 -------------------------------------------------------------------------------
 
 SOLVING FOR HEAD 
 INITIAL HNEW IS AN EXACT SOLUTION.

 NO OUTPUT CONTROL FOR STRESS PERIOD   25   TIME STEP  270

 -------------------------------------------------------------------------------
                             SWR1 OUTPUT PRINT TIMES
                        STRESS PERIOD   25   TIME STEP   270
 --------------- --------------- --------------- --------------- ---------------
     0.11880E+06                                                                
 -------------------------------------------------------------------------------
 
 SOLVING FOR HEAD 
 INITIAL HNEW IS AN EXACT SOLUTION.

 NO OUTPUT CONTROL FOR STRESS PERIOD   25   TIME STEP  271

 -------------------------------------------------------------------------------
                             SWR1 OUTPUT PRINT TIMES
                        STRESS PERIOD   25   TIME STEP   271
 --------------- --------------- --------------- --------------- ---------------
     0.11892E+06                                                                
 -------------------------------------------------------------------------------
 
 SOLVING FOR HEAD 
 INITIAL HNEW IS AN EXACT SOLUTION.

 NO OUTPUT CONTROL FOR STRESS PERIOD   25   TIME STEP  272

 -------------------------------------------------------------------------------
                             SWR1 OUTPUT PRINT TIMES
                        STRESS PERIOD   25   TIME STEP   272
 --------------- --------------- --------------- --------------- ---------------
     0.11904E+06                                                                
 -------------------------------------------------------------------------------
 
 SOLVING FOR HEAD 
 INITIAL HNEW IS AN EXACT SOLUTION.

 NO OUTPUT CONTROL FOR STRESS PERIOD   25   TIME STEP  273

 -------------------------------------------------------------------------------
                             SWR1 OUTPUT PRINT TIMES
                        STRESS PERIOD   25   TIME STEP   273
 --------------- --------------- --------------- --------------- ---------------
     0.11916E+06                                                                
 -------------------------------------------------------------------------------
 
 SOLVING FOR HEAD 
 INITIAL HNEW IS AN EXACT SOLUTION.

 NO OUTPUT CONTROL FOR STRESS PERIOD   25   TIME STEP  274

 -------------------------------------------------------------------------------
                             SWR1 OUTPUT PRINT TIMES
                        STRESS PERIOD   25   TIME STEP   274
 --------------- --------------- --------------- --------------- ---------------
     0.11928E+06                                                                
 -------------------------------------------------------------------------------
 
 SOLVING FOR HEAD 
 INITIAL HNEW IS AN EXACT SOLUTION.

 NO OUTPUT CONTROL FOR STRESS PERIOD   25   TIME STEP  275

 -------------------------------------------------------------------------------
                             SWR1 OUTPUT PRINT TIMES
                        STRESS PERIOD   25   TIME STEP   275
 --------------- --------------- --------------- --------------- ---------------
     0.11940E+06                                                                
 -------------------------------------------------------------------------------
 
 SOLVING FOR HEAD 
 INITIAL HNEW IS AN EXACT SOLUTION.

 NO OUTPUT CONTROL FOR STRESS PERIOD   25   TIME STEP  276

 -------------------------------------------------------------------------------
                             SWR1 OUTPUT PRINT TIMES
                        STRESS PERIOD   25   TIME STEP   276
 --------------- --------------- --------------- --------------- ---------------
     0.11952E+06                                                                
 -------------------------------------------------------------------------------
 
 SOLVING FOR HEAD 
 INITIAL HNEW IS AN EXACT SOLUTION.

 NO OUTPUT CONTROL FOR STRESS PERIOD   25   TIME STEP  277

 -------------------------------------------------------------------------------
                             SWR1 OUTPUT PRINT TIMES
                        STRESS PERIOD   25   TIME STEP   277
 --------------- --------------- --------------- --------------- ---------------
     0.11964E+06                                                                
 -------------------------------------------------------------------------------
 
 SOLVING FOR HEAD 
 INITIAL HNEW IS AN EXACT SOLUTION.

 NO OUTPUT CONTROL FOR STRESS PERIOD   25   TIME STEP  278

 -------------------------------------------------------------------------------
                             SWR1 OUTPUT PRINT TIMES
                        STRESS PERIOD   25   TIME STEP   278
 --------------- --------------- --------------- --------------- ---------------
     0.11976E+06                                                                
 -------------------------------------------------------------------------------
 
 SOLVING FOR HEAD 
 INITIAL HNEW IS AN EXACT SOLUTION.

 NO OUTPUT CONTROL FOR STRESS PERIOD   25   TIME STEP  279

 -------------------------------------------------------------------------------
                             SWR1 OUTPUT PRINT TIMES
                        STRESS PERIOD   25   TIME STEP   279
 --------------- --------------- --------------- --------------- ---------------
     0.11988E+06                                                                
 -------------------------------------------------------------------------------
 
 SOLVING FOR HEAD 
 INITIAL HNEW IS AN EXACT SOLUTION.

 NO OUTPUT CONTROL FOR STRESS PERIOD   25   TIME STEP  280

 -------------------------------------------------------------------------------
                             SWR1 OUTPUT PRINT TIMES
                        STRESS PERIOD   25   TIME STEP   280
 --------------- --------------- --------------- --------------- ---------------
     0.12000E+06                                                                
 -------------------------------------------------------------------------------
 
 SOLVING FOR HEAD 
 INITIAL HNEW IS AN EXACT SOLUTION.

 NO OUTPUT CONTROL FOR STRESS PERIOD   25   TIME STEP  281

 -------------------------------------------------------------------------------
                             SWR1 OUTPUT PRINT TIMES
                        STRESS PERIOD   25   TIME STEP   281
 --------------- --------------- --------------- --------------- ---------------
     0.12012E+06                                                                
 -------------------------------------------------------------------------------
 
 SOLVING FOR HEAD 
 INITIAL HNEW IS AN EXACT SOLUTION.

 NO OUTPUT CONTROL FOR STRESS PERIOD   25   TIME STEP  282

 -------------------------------------------------------------------------------
                             SWR1 OUTPUT PRINT TIMES
                        STRESS PERIOD   25   TIME STEP   282
 --------------- --------------- --------------- --------------- ---------------
     0.12024E+06                                                                
 -------------------------------------------------------------------------------
 
 SOLVING FOR HEAD 
 INITIAL HNEW IS AN EXACT SOLUTION.

 NO OUTPUT CONTROL FOR STRESS PERIOD   25   TIME STEP  283

 -------------------------------------------------------------------------------
                             SWR1 OUTPUT PRINT TIMES
                        STRESS PERIOD   25   TIME STEP   283
 --------------- --------------- --------------- --------------- ---------------
     0.12036E+06                                                                
 -------------------------------------------------------------------------------
 
 SOLVING FOR HEAD 
 INITIAL HNEW IS AN EXACT SOLUTION.

 NO OUTPUT CONTROL FOR STRESS PERIOD   25   TIME STEP  284

 -------------------------------------------------------------------------------
                             SWR1 OUTPUT PRINT TIMES
                        STRESS PERIOD   25   TIME STEP   284
 --------------- --------------- --------------- --------------- ---------------
     0.12048E+06                                                                
 -------------------------------------------------------------------------------
 
 SOLVING FOR HEAD 
 INITIAL HNEW IS AN EXACT SOLUTION.

 NO OUTPUT CONTROL FOR STRESS PERIOD   25   TIME STEP  285

 -------------------------------------------------------------------------------
                             SWR1 OUTPUT PRINT TIMES
                        STRESS PERIOD   25   TIME STEP   285
 --------------- --------------- --------------- --------------- ---------------
     0.12060E+06                                                                
 -------------------------------------------------------------------------------
 
 SOLVING FOR HEAD 
 INITIAL HNEW IS AN EXACT SOLUTION.

 NO OUTPUT CONTROL FOR STRESS PERIOD   25   TIME STEP  286

 -------------------------------------------------------------------------------
                             SWR1 OUTPUT PRINT TIMES
                        STRESS PERIOD   25   TIME STEP   286
 --------------- --------------- --------------- --------------- ---------------
     0.12072E+06                                                                
 -------------------------------------------------------------------------------
 
 SOLVING FOR HEAD 
 INITIAL HNEW IS AN EXACT SOLUTION.

 NO OUTPUT CONTROL FOR STRESS PERIOD   25   TIME STEP  287

 -------------------------------------------------------------------------------
                             SWR1 OUTPUT PRINT TIMES
                        STRESS PERIOD   25   TIME STEP   287
 --------------- --------------- --------------- --------------- ---------------
     0.12084E+06                                                                
 -------------------------------------------------------------------------------
 
 SOLVING FOR HEAD 
 INITIAL HNEW IS AN EXACT SOLUTION.

 NO OUTPUT CONTROL FOR STRESS PERIOD   25   TIME STEP  288

 -------------------------------------------------------------------------------
                             SWR1 OUTPUT PRINT TIMES
                        STRESS PERIOD   25   TIME STEP   288
 --------------- --------------- --------------- --------------- ---------------
     0.12096E+06                                                                
 -------------------------------------------------------------------------------
 
 SOLVING FOR HEAD 
 INITIAL HNEW IS AN EXACT SOLUTION.

 NO OUTPUT CONTROL FOR STRESS PERIOD   25   TIME STEP  289

 -------------------------------------------------------------------------------
                             SWR1 OUTPUT PRINT TIMES
                        STRESS PERIOD   25   TIME STEP   289
 --------------- --------------- --------------- --------------- ---------------
     0.12108E+06                                                                
 -------------------------------------------------------------------------------
 
 SOLVING FOR HEAD 
 INITIAL HNEW IS AN EXACT SOLUTION.

 NO OUTPUT CONTROL FOR STRESS PERIOD   25   TIME STEP  290

 -------------------------------------------------------------------------------
                             SWR1 OUTPUT PRINT TIMES
                        STRESS PERIOD   25   TIME STEP   290
 --------------- --------------- --------------- --------------- ---------------
     0.12120E+06                                                                
 -------------------------------------------------------------------------------
 
 SOLVING FOR HEAD 
 INITIAL HNEW IS AN EXACT SOLUTION.

 NO OUTPUT CONTROL FOR STRESS PERIOD   25   TIME STEP  291

 -------------------------------------------------------------------------------
                             SWR1 OUTPUT PRINT TIMES
                        STRESS PERIOD   25   TIME STEP   291
 --------------- --------------- --------------- --------------- ---------------
     0.12132E+06                                                                
 -------------------------------------------------------------------------------
 
 SOLVING FOR HEAD 
 INITIAL HNEW IS AN EXACT SOLUTION.

 NO OUTPUT CONTROL FOR STRESS PERIOD   25   TIME STEP  292

 -------------------------------------------------------------------------------
                             SWR1 OUTPUT PRINT TIMES
                        STRESS PERIOD   25   TIME STEP   292
 --------------- --------------- --------------- --------------- ---------------
     0.12144E+06                                                                
 -------------------------------------------------------------------------------
 
 SOLVING FOR HEAD 
 INITIAL HNEW IS AN EXACT SOLUTION.

 NO OUTPUT CONTROL FOR STRESS PERIOD   25   TIME STEP  293

 -------------------------------------------------------------------------------
                             SWR1 OUTPUT PRINT TIMES
                        STRESS PERIOD   25   TIME STEP   293
 --------------- --------------- --------------- --------------- ---------------
     0.12156E+06                                                                
 -------------------------------------------------------------------------------
 
 SOLVING FOR HEAD 
 INITIAL HNEW IS AN EXACT SOLUTION.

 NO OUTPUT CONTROL FOR STRESS PERIOD   25   TIME STEP  294

 -------------------------------------------------------------------------------
                             SWR1 OUTPUT PRINT TIMES
                        STRESS PERIOD   25   TIME STEP   294
 --------------- --------------- --------------- --------------- ---------------
     0.12168E+06                                                                
 -------------------------------------------------------------------------------
 
 SOLVING FOR HEAD 
 INITIAL HNEW IS AN EXACT SOLUTION.

 NO OUTPUT CONTROL FOR STRESS PERIOD   25   TIME STEP  295

 -------------------------------------------------------------------------------
                             SWR1 OUTPUT PRINT TIMES
                        STRESS PERIOD   25   TIME STEP   295
 --------------- --------------- --------------- --------------- ---------------
     0.12180E+06                                                                
 -------------------------------------------------------------------------------
 
 SOLVING FOR HEAD 
 INITIAL HNEW IS AN EXACT SOLUTION.

 NO OUTPUT CONTROL FOR STRESS PERIOD   25   TIME STEP  296

 -------------------------------------------------------------------------------
                             SWR1 OUTPUT PRINT TIMES
                        STRESS PERIOD   25   TIME STEP   296
 --------------- --------------- --------------- --------------- ---------------
     0.12192E+06                                                                
 -------------------------------------------------------------------------------
 
 SOLVING FOR HEAD 
 INITIAL HNEW IS AN EXACT SOLUTION.

 NO OUTPUT CONTROL FOR STRESS PERIOD   25   TIME STEP  297

 -------------------------------------------------------------------------------
                             SWR1 OUTPUT PRINT TIMES
                        STRESS PERIOD   25   TIME STEP   297
 --------------- --------------- --------------- --------------- ---------------
     0.12204E+06                                                                
 -------------------------------------------------------------------------------
 
 SOLVING FOR HEAD 
 INITIAL HNEW IS AN EXACT SOLUTION.

 NO OUTPUT CONTROL FOR STRESS PERIOD   25   TIME STEP  298

 -------------------------------------------------------------------------------
                             SWR1 OUTPUT PRINT TIMES
                        STRESS PERIOD   25   TIME STEP   298
 --------------- --------------- --------------- --------------- ---------------
     0.12216E+06                                                                
 -------------------------------------------------------------------------------
 
 SOLVING FOR HEAD 
 INITIAL HNEW IS AN EXACT SOLUTION.

 NO OUTPUT CONTROL FOR STRESS PERIOD   25   TIME STEP  299

 -------------------------------------------------------------------------------
                             SWR1 OUTPUT PRINT TIMES
                        STRESS PERIOD   25   TIME STEP   299
 --------------- --------------- --------------- --------------- ---------------
     0.12228E+06                                                                
 -------------------------------------------------------------------------------
 
 SOLVING FOR HEAD 
 INITIAL HNEW IS AN EXACT SOLUTION.

 NO OUTPUT CONTROL FOR STRESS PERIOD   25   TIME STEP  300

 -------------------------------------------------------------------------------
                             SWR1 OUTPUT PRINT TIMES
                        STRESS PERIOD   25   TIME STEP   300
 --------------- --------------- --------------- --------------- ---------------
     0.12240E+06                                                                
 -------------------------------------------------------------------------------
 
 SOLVING FOR HEAD 
 INITIAL HNEW IS AN EXACT SOLUTION.

 NO OUTPUT CONTROL FOR STRESS PERIOD   25   TIME STEP  301

 -------------------------------------------------------------------------------
                             SWR1 OUTPUT PRINT TIMES
                        STRESS PERIOD   25   TIME STEP   301
 --------------- --------------- --------------- --------------- ---------------
     0.12252E+06                                                                
 -------------------------------------------------------------------------------
 
 SOLVING FOR HEAD 
 INITIAL HNEW IS AN EXACT SOLUTION.

 NO OUTPUT CONTROL FOR STRESS PERIOD   25   TIME STEP  302

 -------------------------------------------------------------------------------
                             SWR1 OUTPUT PRINT TIMES
                        STRESS PERIOD   25   TIME STEP   302
 --------------- --------------- --------------- --------------- ---------------
     0.12264E+06                                                                
 -------------------------------------------------------------------------------
 
 SOLVING FOR HEAD 
 INITIAL HNEW IS AN EXACT SOLUTION.

 NO OUTPUT CONTROL FOR STRESS PERIOD   25   TIME STEP  303

 -------------------------------------------------------------------------------
                             SWR1 OUTPUT PRINT TIMES
                        STRESS PERIOD   25   TIME STEP   303
 --------------- --------------- --------------- --------------- ---------------
     0.12276E+06                                                                
 -------------------------------------------------------------------------------
 
 SOLVING FOR HEAD 
 INITIAL HNEW IS AN EXACT SOLUTION.

 NO OUTPUT CONTROL FOR STRESS PERIOD   25   TIME STEP  304

 -------------------------------------------------------------------------------
                             SWR1 OUTPUT PRINT TIMES
                        STRESS PERIOD   25   TIME STEP   304
 --------------- --------------- --------------- --------------- ---------------
     0.12288E+06                                                                
 -------------------------------------------------------------------------------
 
 SOLVING FOR HEAD 
 INITIAL HNEW IS AN EXACT SOLUTION.

 NO OUTPUT CONTROL FOR STRESS PERIOD   25   TIME STEP  305

 -------------------------------------------------------------------------------
                             SWR1 OUTPUT PRINT TIMES
                        STRESS PERIOD   25   TIME STEP   305
 --------------- --------------- --------------- --------------- ---------------
     0.12300E+06                                                                
 -------------------------------------------------------------------------------
 
 SOLVING FOR HEAD 
 INITIAL HNEW IS AN EXACT SOLUTION.

 NO OUTPUT CONTROL FOR STRESS PERIOD   25   TIME STEP  306

 -------------------------------------------------------------------------------
                             SWR1 OUTPUT PRINT TIMES
                        STRESS PERIOD   25   TIME STEP   306
 --------------- --------------- --------------- --------------- ---------------
     0.12312E+06                                                                
 -------------------------------------------------------------------------------
 
 SOLVING FOR HEAD 
 INITIAL HNEW IS AN EXACT SOLUTION.

 NO OUTPUT CONTROL FOR STRESS PERIOD   25   TIME STEP  307

 -------------------------------------------------------------------------------
                             SWR1 OUTPUT PRINT TIMES
                        STRESS PERIOD   25   TIME STEP   307
 --------------- --------------- --------------- --------------- ---------------
     0.12324E+06                                                                
 -------------------------------------------------------------------------------
 
 SOLVING FOR HEAD 
 INITIAL HNEW IS AN EXACT SOLUTION.

 NO OUTPUT CONTROL FOR STRESS PERIOD   25   TIME STEP  308

 -------------------------------------------------------------------------------
                             SWR1 OUTPUT PRINT TIMES
                        STRESS PERIOD   25   TIME STEP   308
 --------------- --------------- --------------- --------------- ---------------
     0.12336E+06                                                                
 -------------------------------------------------------------------------------
 
 SOLVING FOR HEAD 
 INITIAL HNEW IS AN EXACT SOLUTION.

 NO OUTPUT CONTROL FOR STRESS PERIOD   25   TIME STEP  309

 -------------------------------------------------------------------------------
                             SWR1 OUTPUT PRINT TIMES
                        STRESS PERIOD   25   TIME STEP   309
 --------------- --------------- --------------- --------------- ---------------
     0.12348E+06                                                                
 -------------------------------------------------------------------------------
 
 SOLVING FOR HEAD 
 INITIAL HNEW IS AN EXACT SOLUTION.

 NO OUTPUT CONTROL FOR STRESS PERIOD   25   TIME STEP  310

 -------------------------------------------------------------------------------
                             SWR1 OUTPUT PRINT TIMES
                        STRESS PERIOD   25   TIME STEP   310
 --------------- --------------- --------------- --------------- ---------------
     0.12360E+06                                                                
 -------------------------------------------------------------------------------
 
 SOLVING FOR HEAD 
 INITIAL HNEW IS AN EXACT SOLUTION.

 NO OUTPUT CONTROL FOR STRESS PERIOD   25   TIME STEP  311

 -------------------------------------------------------------------------------
                             SWR1 OUTPUT PRINT TIMES
                        STRESS PERIOD   25   TIME STEP   311
 --------------- --------------- --------------- --------------- ---------------
     0.12372E+06                                                                
 -------------------------------------------------------------------------------
 
 SOLVING FOR HEAD 
 INITIAL HNEW IS AN EXACT SOLUTION.

 NO OUTPUT CONTROL FOR STRESS PERIOD   25   TIME STEP  312

 -------------------------------------------------------------------------------
                             SWR1 OUTPUT PRINT TIMES
                        STRESS PERIOD   25   TIME STEP   312
 --------------- --------------- --------------- --------------- ---------------
     0.12384E+06                                                                
 -------------------------------------------------------------------------------
 
 SOLVING FOR HEAD 
 INITIAL HNEW IS AN EXACT SOLUTION.

 NO OUTPUT CONTROL FOR STRESS PERIOD   25   TIME STEP  313

 -------------------------------------------------------------------------------
                             SWR1 OUTPUT PRINT TIMES
                        STRESS PERIOD   25   TIME STEP   313
 --------------- --------------- --------------- --------------- ---------------
     0.12396E+06                                                                
 -------------------------------------------------------------------------------
 
 SOLVING FOR HEAD 
 INITIAL HNEW IS AN EXACT SOLUTION.

 NO OUTPUT CONTROL FOR STRESS PERIOD   25   TIME STEP  314

 -------------------------------------------------------------------------------
                             SWR1 OUTPUT PRINT TIMES
                        STRESS PERIOD   25   TIME STEP   314
 --------------- --------------- --------------- --------------- ---------------
     0.12408E+06                                                                
 -------------------------------------------------------------------------------
 
 SOLVING FOR HEAD 
 INITIAL HNEW IS AN EXACT SOLUTION.

 NO OUTPUT CONTROL FOR STRESS PERIOD   25   TIME STEP  315

 -------------------------------------------------------------------------------
                             SWR1 OUTPUT PRINT TIMES
                        STRESS PERIOD   25   TIME STEP   315
 --------------- --------------- --------------- --------------- ---------------
     0.12420E+06                                                                
 -------------------------------------------------------------------------------
 
 SOLVING FOR HEAD 
 INITIAL HNEW IS AN EXACT SOLUTION.

 NO OUTPUT CONTROL FOR STRESS PERIOD   25   TIME STEP  316

 -------------------------------------------------------------------------------
                             SWR1 OUTPUT PRINT TIMES
                        STRESS PERIOD   25   TIME STEP   316
 --------------- --------------- --------------- --------------- ---------------
     0.12432E+06                                                                
 -------------------------------------------------------------------------------
 
 SOLVING FOR HEAD 
 INITIAL HNEW IS AN EXACT SOLUTION.

 NO OUTPUT CONTROL FOR STRESS PERIOD   25   TIME STEP  317

 -------------------------------------------------------------------------------
                             SWR1 OUTPUT PRINT TIMES
                        STRESS PERIOD   25   TIME STEP   317
 --------------- --------------- --------------- --------------- ---------------
     0.12444E+06                                                                
 -------------------------------------------------------------------------------
 
 SOLVING FOR HEAD 
 INITIAL HNEW IS AN EXACT SOLUTION.

 NO OUTPUT CONTROL FOR STRESS PERIOD   25   TIME STEP  318

 -------------------------------------------------------------------------------
                             SWR1 OUTPUT PRINT TIMES
                        STRESS PERIOD   25   TIME STEP   318
 --------------- --------------- --------------- --------------- ---------------
     0.12456E+06                                                                
 -------------------------------------------------------------------------------
 
 SOLVING FOR HEAD 
 INITIAL HNEW IS AN EXACT SOLUTION.

 NO OUTPUT CONTROL FOR STRESS PERIOD   25   TIME STEP  319

 -------------------------------------------------------------------------------
                             SWR1 OUTPUT PRINT TIMES
                        STRESS PERIOD   25   TIME STEP   319
 --------------- --------------- --------------- --------------- ---------------
     0.12468E+06                                                                
 -------------------------------------------------------------------------------
 
 SOLVING FOR HEAD 
 INITIAL HNEW IS AN EXACT SOLUTION.

 NO OUTPUT CONTROL FOR STRESS PERIOD   25   TIME STEP  320

 -------------------------------------------------------------------------------
                             SWR1 OUTPUT PRINT TIMES
                        STRESS PERIOD   25   TIME STEP   320
 --------------- --------------- --------------- --------------- ---------------
     0.12480E+06                                                                
 -------------------------------------------------------------------------------
 
 SOLVING FOR HEAD 
 INITIAL HNEW IS AN EXACT SOLUTION.

 NO OUTPUT CONTROL FOR STRESS PERIOD   25   TIME STEP  321

 -------------------------------------------------------------------------------
                             SWR1 OUTPUT PRINT TIMES
                        STRESS PERIOD   25   TIME STEP   321
 --------------- --------------- --------------- --------------- ---------------
     0.12492E+06                                                                
 -------------------------------------------------------------------------------
 
 SOLVING FOR HEAD 
 INITIAL HNEW IS AN EXACT SOLUTION.

 NO OUTPUT CONTROL FOR STRESS PERIOD   25   TIME STEP  322

 -------------------------------------------------------------------------------
                             SWR1 OUTPUT PRINT TIMES
                        STRESS PERIOD   25   TIME STEP   322
 --------------- --------------- --------------- --------------- ---------------
     0.12504E+06                                                                
 -------------------------------------------------------------------------------
 
 SOLVING FOR HEAD 
 INITIAL HNEW IS AN EXACT SOLUTION.

 NO OUTPUT CONTROL FOR STRESS PERIOD   25   TIME STEP  323

 -------------------------------------------------------------------------------
                             SWR1 OUTPUT PRINT TIMES
                        STRESS PERIOD   25   TIME STEP   323
 --------------- --------------- --------------- --------------- ---------------
     0.12516E+06                                                                
 -------------------------------------------------------------------------------
 
 SOLVING FOR HEAD 
 INITIAL HNEW IS AN EXACT SOLUTION.

 NO OUTPUT CONTROL FOR STRESS PERIOD   25   TIME STEP  324

 -------------------------------------------------------------------------------
                             SWR1 OUTPUT PRINT TIMES
                        STRESS PERIOD   25   TIME STEP   324
 --------------- --------------- --------------- --------------- ---------------
     0.12528E+06                                                                
 -------------------------------------------------------------------------------
 
 SOLVING FOR HEAD 
 INITIAL HNEW IS AN EXACT SOLUTION.

 NO OUTPUT CONTROL FOR STRESS PERIOD   25   TIME STEP  325

 -------------------------------------------------------------------------------
                             SWR1 OUTPUT PRINT TIMES
                        STRESS PERIOD   25   TIME STEP   325
 --------------- --------------- --------------- --------------- ---------------
     0.12540E+06                                                                
 -------------------------------------------------------------------------------
 
 SOLVING FOR HEAD 
 INITIAL HNEW IS AN EXACT SOLUTION.

 NO OUTPUT CONTROL FOR STRESS PERIOD   25   TIME STEP  326

 -------------------------------------------------------------------------------
                             SWR1 OUTPUT PRINT TIMES
                        STRESS PERIOD   25   TIME STEP   326
 --------------- --------------- --------------- --------------- ---------------
     0.12552E+06                                                                
 -------------------------------------------------------------------------------
 
 SOLVING FOR HEAD 
 INITIAL HNEW IS AN EXACT SOLUTION.

 NO OUTPUT CONTROL FOR STRESS PERIOD   25   TIME STEP  327

 -------------------------------------------------------------------------------
                             SWR1 OUTPUT PRINT TIMES
                        STRESS PERIOD   25   TIME STEP   327
 --------------- --------------- --------------- --------------- ---------------
     0.12564E+06                                                                
 -------------------------------------------------------------------------------
 
 SOLVING FOR HEAD 
 INITIAL HNEW IS AN EXACT SOLUTION.

 NO OUTPUT CONTROL FOR STRESS PERIOD   25   TIME STEP  328

 -------------------------------------------------------------------------------
                             SWR1 OUTPUT PRINT TIMES
                        STRESS PERIOD   25   TIME STEP   328
 --------------- --------------- --------------- --------------- ---------------
     0.12576E+06                                                                
 -------------------------------------------------------------------------------
 
 SOLVING FOR HEAD 
 INITIAL HNEW IS AN EXACT SOLUTION.

 NO OUTPUT CONTROL FOR STRESS PERIOD   25   TIME STEP  329

 -------------------------------------------------------------------------------
                             SWR1 OUTPUT PRINT TIMES
                        STRESS PERIOD   25   TIME STEP   329
 --------------- --------------- --------------- --------------- ---------------
     0.12588E+06                                                                
 -------------------------------------------------------------------------------
 
 SOLVING FOR HEAD 
 INITIAL HNEW IS AN EXACT SOLUTION.

 NO OUTPUT CONTROL FOR STRESS PERIOD   25   TIME STEP  330

 -------------------------------------------------------------------------------
                             SWR1 OUTPUT PRINT TIMES
                        STRESS PERIOD   25   TIME STEP   330
 --------------- --------------- --------------- --------------- ---------------
     0.12600E+06                                                                
 -------------------------------------------------------------------------------
 
 SOLVING FOR HEAD 
 INITIAL HNEW IS AN EXACT SOLUTION.

 NO OUTPUT CONTROL FOR STRESS PERIOD   25   TIME STEP  331

 -------------------------------------------------------------------------------
                             SWR1 OUTPUT PRINT TIMES
                        STRESS PERIOD   25   TIME STEP   331
 --------------- --------------- --------------- --------------- ---------------
     0.12612E+06                                                                
 -------------------------------------------------------------------------------
 
 SOLVING FOR HEAD 
 INITIAL HNEW IS AN EXACT SOLUTION.

 NO OUTPUT CONTROL FOR STRESS PERIOD   25   TIME STEP  332

 -------------------------------------------------------------------------------
                             SWR1 OUTPUT PRINT TIMES
                        STRESS PERIOD   25   TIME STEP   332
 --------------- --------------- --------------- --------------- ---------------
     0.12624E+06                                                                
 -------------------------------------------------------------------------------
 
 SOLVING FOR HEAD 
 INITIAL HNEW IS AN EXACT SOLUTION.

 NO OUTPUT CONTROL FOR STRESS PERIOD   25   TIME STEP  333

 -------------------------------------------------------------------------------
                             SWR1 OUTPUT PRINT TIMES
                        STRESS PERIOD   25   TIME STEP   333
 --------------- --------------- --------------- --------------- ---------------
     0.12636E+06                                                                
 -------------------------------------------------------------------------------
 
 SOLVING FOR HEAD 
 INITIAL HNEW IS AN EXACT SOLUTION.

 NO OUTPUT CONTROL FOR STRESS PERIOD   25   TIME STEP  334

 -------------------------------------------------------------------------------
                             SWR1 OUTPUT PRINT TIMES
                        STRESS PERIOD   25   TIME STEP   334
 --------------- --------------- --------------- --------------- ---------------
     0.12648E+06                                                                
 -------------------------------------------------------------------------------
 
 SOLVING FOR HEAD 
 INITIAL HNEW IS AN EXACT SOLUTION.

 NO OUTPUT CONTROL FOR STRESS PERIOD   25   TIME STEP  335

 -------------------------------------------------------------------------------
                             SWR1 OUTPUT PRINT TIMES
                        STRESS PERIOD   25   TIME STEP   335
 --------------- --------------- --------------- --------------- ---------------
     0.12660E+06                                                                
 -------------------------------------------------------------------------------
 
 SOLVING FOR HEAD 
 INITIAL HNEW IS AN EXACT SOLUTION.

 NO OUTPUT CONTROL FOR STRESS PERIOD   25   TIME STEP  336

 -------------------------------------------------------------------------------
                             SWR1 OUTPUT PRINT TIMES
                        STRESS PERIOD   25   TIME STEP   336
 --------------- --------------- --------------- --------------- ---------------
     0.12672E+06                                                                
 -------------------------------------------------------------------------------
 
 SOLVING FOR HEAD 
 INITIAL HNEW IS AN EXACT SOLUTION.

 NO OUTPUT CONTROL FOR STRESS PERIOD   25   TIME STEP  337

 -------------------------------------------------------------------------------
                             SWR1 OUTPUT PRINT TIMES
                        STRESS PERIOD   25   TIME STEP   337
 --------------- --------------- --------------- --------------- ---------------
     0.12684E+06                                                                
 -------------------------------------------------------------------------------
 
 SOLVING FOR HEAD 
 INITIAL HNEW IS AN EXACT SOLUTION.

 NO OUTPUT CONTROL FOR STRESS PERIOD   25   TIME STEP  338

 -------------------------------------------------------------------------------
                             SWR1 OUTPUT PRINT TIMES
                        STRESS PERIOD   25   TIME STEP   338
 --------------- --------------- --------------- --------------- ---------------
     0.12696E+06                                                                
 -------------------------------------------------------------------------------
 
 SOLVING FOR HEAD 
 INITIAL HNEW IS AN EXACT SOLUTION.

 NO OUTPUT CONTROL FOR STRESS PERIOD   25   TIME STEP  339

 -------------------------------------------------------------------------------
                             SWR1 OUTPUT PRINT TIMES
                        STRESS PERIOD   25   TIME STEP   339
 --------------- --------------- --------------- --------------- ---------------
     0.12708E+06                                                                
 -------------------------------------------------------------------------------
 
 SOLVING FOR HEAD 
 INITIAL HNEW IS AN EXACT SOLUTION.

 NO OUTPUT CONTROL FOR STRESS PERIOD   25   TIME STEP  340

 -------------------------------------------------------------------------------
                             SWR1 OUTPUT PRINT TIMES
                        STRESS PERIOD   25   TIME STEP   340
 --------------- --------------- --------------- --------------- ---------------
     0.12720E+06                                                                
 -------------------------------------------------------------------------------
 
 SOLVING FOR HEAD 
 INITIAL HNEW IS AN EXACT SOLUTION.

 NO OUTPUT CONTROL FOR STRESS PERIOD   25   TIME STEP  341

 -------------------------------------------------------------------------------
                             SWR1 OUTPUT PRINT TIMES
                        STRESS PERIOD   25   TIME STEP   341
 --------------- --------------- --------------- --------------- ---------------
     0.12732E+06                                                                
 -------------------------------------------------------------------------------
 
 SOLVING FOR HEAD 
 INITIAL HNEW IS AN EXACT SOLUTION.

 NO OUTPUT CONTROL FOR STRESS PERIOD   25   TIME STEP  342

 -------------------------------------------------------------------------------
                             SWR1 OUTPUT PRINT TIMES
                        STRESS PERIOD   25   TIME STEP   342
 --------------- --------------- --------------- --------------- ---------------
     0.12744E+06                                                                
 -------------------------------------------------------------------------------
 
 SOLVING FOR HEAD 
 INITIAL HNEW IS AN EXACT SOLUTION.

 NO OUTPUT CONTROL FOR STRESS PERIOD   25   TIME STEP  343

 -------------------------------------------------------------------------------
                             SWR1 OUTPUT PRINT TIMES
                        STRESS PERIOD   25   TIME STEP   343
 --------------- --------------- --------------- --------------- ---------------
     0.12756E+06                                                                
 -------------------------------------------------------------------------------
 
 SOLVING FOR HEAD 
 INITIAL HNEW IS AN EXACT SOLUTION.

 NO OUTPUT CONTROL FOR STRESS PERIOD   25   TIME STEP  344

 -------------------------------------------------------------------------------
                             SWR1 OUTPUT PRINT TIMES
                        STRESS PERIOD   25   TIME STEP   344
 --------------- --------------- --------------- --------------- ---------------
     0.12768E+06                                                                
 -------------------------------------------------------------------------------
 
 SOLVING FOR HEAD 
 INITIAL HNEW IS AN EXACT SOLUTION.

 NO OUTPUT CONTROL FOR STRESS PERIOD   25   TIME STEP  345

 -------------------------------------------------------------------------------
                             SWR1 OUTPUT PRINT TIMES
                        STRESS PERIOD   25   TIME STEP   345
 --------------- --------------- --------------- --------------- ---------------
     0.12780E+06                                                                
 -------------------------------------------------------------------------------
 
 SOLVING FOR HEAD 
 INITIAL HNEW IS AN EXACT SOLUTION.

 NO OUTPUT CONTROL FOR STRESS PERIOD   25   TIME STEP  346

 -------------------------------------------------------------------------------
                             SWR1 OUTPUT PRINT TIMES
                        STRESS PERIOD   25   TIME STEP   346
 --------------- --------------- --------------- --------------- ---------------
     0.12792E+06                                                                
 -------------------------------------------------------------------------------
 
 SOLVING FOR HEAD 
 INITIAL HNEW IS AN EXACT SOLUTION.

 NO OUTPUT CONTROL FOR STRESS PERIOD   25   TIME STEP  347

 -------------------------------------------------------------------------------
                             SWR1 OUTPUT PRINT TIMES
                        STRESS PERIOD   25   TIME STEP   347
 --------------- --------------- --------------- --------------- ---------------
     0.12804E+06                                                                
 -------------------------------------------------------------------------------
 
 SOLVING FOR HEAD 
 INITIAL HNEW IS AN EXACT SOLUTION.

 NO OUTPUT CONTROL FOR STRESS PERIOD   25   TIME STEP  348

 -------------------------------------------------------------------------------
                             SWR1 OUTPUT PRINT TIMES
                        STRESS PERIOD   25   TIME STEP   348
 --------------- --------------- --------------- --------------- ---------------
     0.12816E+06                                                                
 -------------------------------------------------------------------------------
 
 SOLVING FOR HEAD 
 INITIAL HNEW IS AN EXACT SOLUTION.

 NO OUTPUT CONTROL FOR STRESS PERIOD   25   TIME STEP  349

 -------------------------------------------------------------------------------
                             SWR1 OUTPUT PRINT TIMES
                        STRESS PERIOD   25   TIME STEP   349
 --------------- --------------- --------------- --------------- ---------------
     0.12828E+06                                                                
 -------------------------------------------------------------------------------
 
 SOLVING FOR HEAD 
 INITIAL HNEW IS AN EXACT SOLUTION.

 NO OUTPUT CONTROL FOR STRESS PERIOD   25   TIME STEP  350

 -------------------------------------------------------------------------------
                             SWR1 OUTPUT PRINT TIMES
                        STRESS PERIOD   25   TIME STEP   350
 --------------- --------------- --------------- --------------- ---------------
     0.12840E+06                                                                
 -------------------------------------------------------------------------------
 
 SOLVING FOR HEAD 
 INITIAL HNEW IS AN EXACT SOLUTION.

 NO OUTPUT CONTROL FOR STRESS PERIOD   25   TIME STEP  351

 -------------------------------------------------------------------------------
                             SWR1 OUTPUT PRINT TIMES
                        STRESS PERIOD   25   TIME STEP   351
 --------------- --------------- --------------- --------------- ---------------
     0.12852E+06                                                                
 -------------------------------------------------------------------------------
 
 SOLVING FOR HEAD 
 INITIAL HNEW IS AN EXACT SOLUTION.

 NO OUTPUT CONTROL FOR STRESS PERIOD   25   TIME STEP  352

 -------------------------------------------------------------------------------
                             SWR1 OUTPUT PRINT TIMES
                        STRESS PERIOD   25   TIME STEP   352
 --------------- --------------- --------------- --------------- ---------------
     0.12864E+06                                                                
 -------------------------------------------------------------------------------
 
 SOLVING FOR HEAD 
 INITIAL HNEW IS AN EXACT SOLUTION.

 NO OUTPUT CONTROL FOR STRESS PERIOD   25   TIME STEP  353

 -------------------------------------------------------------------------------
                             SWR1 OUTPUT PRINT TIMES
                        STRESS PERIOD   25   TIME STEP   353
 --------------- --------------- --------------- --------------- ---------------
     0.12876E+06                                                                
 -------------------------------------------------------------------------------
 
 SOLVING FOR HEAD 
 INITIAL HNEW IS AN EXACT SOLUTION.

 NO OUTPUT CONTROL FOR STRESS PERIOD   25   TIME STEP  354

 -------------------------------------------------------------------------------
                             SWR1 OUTPUT PRINT TIMES
                        STRESS PERIOD   25   TIME STEP   354
 --------------- --------------- --------------- --------------- ---------------
     0.12888E+06                                                                
 -------------------------------------------------------------------------------
 
 SOLVING FOR HEAD 
 INITIAL HNEW IS AN EXACT SOLUTION.

 NO OUTPUT CONTROL FOR STRESS PERIOD   25   TIME STEP  355

 -------------------------------------------------------------------------------
                             SWR1 OUTPUT PRINT TIMES
                        STRESS PERIOD   25   TIME STEP   355
 --------------- --------------- --------------- --------------- ---------------
     0.12900E+06                                                                
 -------------------------------------------------------------------------------
 
 SOLVING FOR HEAD 
 INITIAL HNEW IS AN EXACT SOLUTION.

 NO OUTPUT CONTROL FOR STRESS PERIOD   25   TIME STEP  356

 -------------------------------------------------------------------------------
                             SWR1 OUTPUT PRINT TIMES
                        STRESS PERIOD   25   TIME STEP   356
 --------------- --------------- --------------- --------------- ---------------
     0.12912E+06                                                                
 -------------------------------------------------------------------------------
 
 SOLVING FOR HEAD 
 INITIAL HNEW IS AN EXACT SOLUTION.

 NO OUTPUT CONTROL FOR STRESS PERIOD   25   TIME STEP  357

 -------------------------------------------------------------------------------
                             SWR1 OUTPUT PRINT TIMES
                        STRESS PERIOD   25   TIME STEP   357
 --------------- --------------- --------------- --------------- ---------------
     0.12924E+06                                                                
 -------------------------------------------------------------------------------
 
 SOLVING FOR HEAD 
 INITIAL HNEW IS AN EXACT SOLUTION.

 NO OUTPUT CONTROL FOR STRESS PERIOD   25   TIME STEP  358

 -------------------------------------------------------------------------------
                             SWR1 OUTPUT PRINT TIMES
                        STRESS PERIOD   25   TIME STEP   358
 --------------- --------------- --------------- --------------- ---------------
     0.12936E+06                                                                
 -------------------------------------------------------------------------------
 
 SOLVING FOR HEAD 
 INITIAL HNEW IS AN EXACT SOLUTION.

 NO OUTPUT CONTROL FOR STRESS PERIOD   25   TIME STEP  359

 -------------------------------------------------------------------------------
                             SWR1 OUTPUT PRINT TIMES
                        STRESS PERIOD   25   TIME STEP   359
 --------------- --------------- --------------- --------------- ---------------
     0.12948E+06                                                                
 -------------------------------------------------------------------------------
 
 SOLVING FOR HEAD 
 INITIAL HNEW IS AN EXACT SOLUTION.

 NO OUTPUT CONTROL FOR STRESS PERIOD   25   TIME STEP  360

 -------------------------------------------------------------------------------
                             SWR1 OUTPUT PRINT TIMES
                        STRESS PERIOD   25   TIME STEP   360
 --------------- --------------- --------------- --------------- ---------------
     0.12960E+06                                                                
 -------------------------------------------------------------------------------
 
 SOLVING FOR HEAD 
 INITIAL HNEW IS AN EXACT SOLUTION.

 NO OUTPUT CONTROL FOR STRESS PERIOD   25   TIME STEP  361

 -------------------------------------------------------------------------------
                             SWR1 OUTPUT PRINT TIMES
                        STRESS PERIOD   25   TIME STEP   361
 --------------- --------------- --------------- --------------- ---------------
     0.12972E+06                                                                
 -------------------------------------------------------------------------------
 
 SOLVING FOR HEAD 
 INITIAL HNEW IS AN EXACT SOLUTION.

 NO OUTPUT CONTROL FOR STRESS PERIOD   25   TIME STEP  362

 -------------------------------------------------------------------------------
                             SWR1 OUTPUT PRINT TIMES
                        STRESS PERIOD   25   TIME STEP   362
 --------------- --------------- --------------- --------------- ---------------
     0.12984E+06                                                                
 -------------------------------------------------------------------------------
 
 SOLVING FOR HEAD 
 INITIAL HNEW IS AN EXACT SOLUTION.

 NO OUTPUT CONTROL FOR STRESS PERIOD   25   TIME STEP  363

 -------------------------------------------------------------------------------
                             SWR1 OUTPUT PRINT TIMES
                        STRESS PERIOD   25   TIME STEP   363
 --------------- --------------- --------------- --------------- ---------------
     0.12996E+06                                                                
 -------------------------------------------------------------------------------
 
 SOLVING FOR HEAD 
 INITIAL HNEW IS AN EXACT SOLUTION.

 NO OUTPUT CONTROL FOR STRESS PERIOD   25   TIME STEP  364

 -------------------------------------------------------------------------------
                             SWR1 OUTPUT PRINT TIMES
                        STRESS PERIOD   25   TIME STEP   364
 --------------- --------------- --------------- --------------- ---------------
     0.13008E+06                                                                
 -------------------------------------------------------------------------------
 
 SOLVING FOR HEAD 
 INITIAL HNEW IS AN EXACT SOLUTION.

 NO OUTPUT CONTROL FOR STRESS PERIOD   25   TIME STEP  365

 -------------------------------------------------------------------------------
                             SWR1 OUTPUT PRINT TIMES
                        STRESS PERIOD   25   TIME STEP   365
 --------------- --------------- --------------- --------------- ---------------
     0.13020E+06                                                                
 -------------------------------------------------------------------------------
 
 SOLVING FOR HEAD 
 INITIAL HNEW IS AN EXACT SOLUTION.

 NO OUTPUT CONTROL FOR STRESS PERIOD   25   TIME STEP  366

 -------------------------------------------------------------------------------
                             SWR1 OUTPUT PRINT TIMES
                        STRESS PERIOD   25   TIME STEP   366
 --------------- --------------- --------------- --------------- ---------------
     0.13032E+06                                                                
 -------------------------------------------------------------------------------
 
 SOLVING FOR HEAD 
 INITIAL HNEW IS AN EXACT SOLUTION.

 NO OUTPUT CONTROL FOR STRESS PERIOD   25   TIME STEP  367

 -------------------------------------------------------------------------------
                             SWR1 OUTPUT PRINT TIMES
                        STRESS PERIOD   25   TIME STEP   367
 --------------- --------------- --------------- --------------- ---------------
     0.13044E+06                                                                
 -------------------------------------------------------------------------------
 
 SOLVING FOR HEAD 
 INITIAL HNEW IS AN EXACT SOLUTION.

 NO OUTPUT CONTROL FOR STRESS PERIOD   25   TIME STEP  368

 -------------------------------------------------------------------------------
                             SWR1 OUTPUT PRINT TIMES
                        STRESS PERIOD   25   TIME STEP   368
 --------------- --------------- --------------- --------------- ---------------
     0.13056E+06                                                                
 -------------------------------------------------------------------------------
 
 SOLVING FOR HEAD 
 INITIAL HNEW IS AN EXACT SOLUTION.

 NO OUTPUT CONTROL FOR STRESS PERIOD   25   TIME STEP  369

 -------------------------------------------------------------------------------
                             SWR1 OUTPUT PRINT TIMES
                        STRESS PERIOD   25   TIME STEP   369
 --------------- --------------- --------------- --------------- ---------------
     0.13068E+06                                                                
 -------------------------------------------------------------------------------
 
 SOLVING FOR HEAD 
 INITIAL HNEW IS AN EXACT SOLUTION.

 NO OUTPUT CONTROL FOR STRESS PERIOD   25   TIME STEP  370

 -------------------------------------------------------------------------------
                             SWR1 OUTPUT PRINT TIMES
                        STRESS PERIOD   25   TIME STEP   370
 --------------- --------------- --------------- --------------- ---------------
     0.13080E+06                                                                
 -------------------------------------------------------------------------------
 
 SOLVING FOR HEAD 
 INITIAL HNEW IS AN EXACT SOLUTION.

 NO OUTPUT CONTROL FOR STRESS PERIOD   25   TIME STEP  371

 -------------------------------------------------------------------------------
                             SWR1 OUTPUT PRINT TIMES
                        STRESS PERIOD   25   TIME STEP   371
 --------------- --------------- --------------- --------------- ---------------
     0.13092E+06                                                                
 -------------------------------------------------------------------------------
 
 SOLVING FOR HEAD 
 INITIAL HNEW IS AN EXACT SOLUTION.

 NO OUTPUT CONTROL FOR STRESS PERIOD   25   TIME STEP  372

 -------------------------------------------------------------------------------
                             SWR1 OUTPUT PRINT TIMES
                        STRESS PERIOD   25   TIME STEP   372
 --------------- --------------- --------------- --------------- ---------------
     0.13104E+06                                                                
 -------------------------------------------------------------------------------
 
 SOLVING FOR HEAD 
 INITIAL HNEW IS AN EXACT SOLUTION.

 NO OUTPUT CONTROL FOR STRESS PERIOD   25   TIME STEP  373

 -------------------------------------------------------------------------------
                             SWR1 OUTPUT PRINT TIMES
                        STRESS PERIOD   25   TIME STEP   373
 --------------- --------------- --------------- --------------- ---------------
     0.13116E+06                                                                
 -------------------------------------------------------------------------------
 
 SOLVING FOR HEAD 
 INITIAL HNEW IS AN EXACT SOLUTION.

 NO OUTPUT CONTROL FOR STRESS PERIOD   25   TIME STEP  374

 -------------------------------------------------------------------------------
                             SWR1 OUTPUT PRINT TIMES
                        STRESS PERIOD   25   TIME STEP   374
 --------------- --------------- --------------- --------------- ---------------
     0.13128E+06                                                                
 -------------------------------------------------------------------------------
 
 SOLVING FOR HEAD 
 INITIAL HNEW IS AN EXACT SOLUTION.

 NO OUTPUT CONTROL FOR STRESS PERIOD   25   TIME STEP  375

 -------------------------------------------------------------------------------
                             SWR1 OUTPUT PRINT TIMES
                        STRESS PERIOD   25   TIME STEP   375
 --------------- --------------- --------------- --------------- ---------------
     0.13140E+06                                                                
 -------------------------------------------------------------------------------
 
 SOLVING FOR HEAD 
 INITIAL HNEW IS AN EXACT SOLUTION.

 NO OUTPUT CONTROL FOR STRESS PERIOD   25   TIME STEP  376

 -------------------------------------------------------------------------------
                             SWR1 OUTPUT PRINT TIMES
                        STRESS PERIOD   25   TIME STEP   376
 --------------- --------------- --------------- --------------- ---------------
     0.13152E+06                                                                
 -------------------------------------------------------------------------------
 
 SOLVING FOR HEAD 
 INITIAL HNEW IS AN EXACT SOLUTION.

 NO OUTPUT CONTROL FOR STRESS PERIOD   25   TIME STEP  377

 -------------------------------------------------------------------------------
                             SWR1 OUTPUT PRINT TIMES
                        STRESS PERIOD   25   TIME STEP   377
 --------------- --------------- --------------- --------------- ---------------
     0.13164E+06                                                                
 -------------------------------------------------------------------------------
 
 SOLVING FOR HEAD 
 INITIAL HNEW IS AN EXACT SOLUTION.

 NO OUTPUT CONTROL FOR STRESS PERIOD   25   TIME STEP  378

 -------------------------------------------------------------------------------
                             SWR1 OUTPUT PRINT TIMES
                        STRESS PERIOD   25   TIME STEP   378
 --------------- --------------- --------------- --------------- ---------------
     0.13176E+06                                                                
 -------------------------------------------------------------------------------
 
 SOLVING FOR HEAD 
 INITIAL HNEW IS AN EXACT SOLUTION.

 NO OUTPUT CONTROL FOR STRESS PERIOD   25   TIME STEP  379

 -------------------------------------------------------------------------------
                             SWR1 OUTPUT PRINT TIMES
                        STRESS PERIOD   25   TIME STEP   379
 --------------- --------------- --------------- --------------- ---------------
     0.13188E+06                                                                
 -------------------------------------------------------------------------------
 
 SOLVING FOR HEAD 
 INITIAL HNEW IS AN EXACT SOLUTION.

 NO OUTPUT CONTROL FOR STRESS PERIOD   25   TIME STEP  380

 -------------------------------------------------------------------------------
                             SWR1 OUTPUT PRINT TIMES
                        STRESS PERIOD   25   TIME STEP   380
 --------------- --------------- --------------- --------------- ---------------
     0.13200E+06                                                                
 -------------------------------------------------------------------------------
 
 SOLVING FOR HEAD 
 INITIAL HNEW IS AN EXACT SOLUTION.

 NO OUTPUT CONTROL FOR STRESS PERIOD   25   TIME STEP  381

 -------------------------------------------------------------------------------
                             SWR1 OUTPUT PRINT TIMES
                        STRESS PERIOD   25   TIME STEP   381
 --------------- --------------- --------------- --------------- ---------------
     0.13212E+06                                                                
 -------------------------------------------------------------------------------
 
 SOLVING FOR HEAD 
 INITIAL HNEW IS AN EXACT SOLUTION.

 NO OUTPUT CONTROL FOR STRESS PERIOD   25   TIME STEP  382

 -------------------------------------------------------------------------------
                             SWR1 OUTPUT PRINT TIMES
                        STRESS PERIOD   25   TIME STEP   382
 --------------- --------------- --------------- --------------- ---------------
     0.13224E+06                                                                
 -------------------------------------------------------------------------------
 
 SOLVING FOR HEAD 
 INITIAL HNEW IS AN EXACT SOLUTION.

 NO OUTPUT CONTROL FOR STRESS PERIOD   25   TIME STEP  383

 -------------------------------------------------------------------------------
                             SWR1 OUTPUT PRINT TIMES
                        STRESS PERIOD   25   TIME STEP   383
 --------------- --------------- --------------- --------------- ---------------
     0.13236E+06                                                                
 -------------------------------------------------------------------------------
 
 SOLVING FOR HEAD 
 INITIAL HNEW IS AN EXACT SOLUTION.

 NO OUTPUT CONTROL FOR STRESS PERIOD   25   TIME STEP  384

 -------------------------------------------------------------------------------
                             SWR1 OUTPUT PRINT TIMES
                        STRESS PERIOD   25   TIME STEP   384
 --------------- --------------- --------------- --------------- ---------------
     0.13248E+06                                                                
 -------------------------------------------------------------------------------
 
 SOLVING FOR HEAD 
 INITIAL HNEW IS AN EXACT SOLUTION.

 NO OUTPUT CONTROL FOR STRESS PERIOD   25   TIME STEP  385

 -------------------------------------------------------------------------------
                             SWR1 OUTPUT PRINT TIMES
                        STRESS PERIOD   25   TIME STEP   385
 --------------- --------------- --------------- --------------- ---------------
     0.13260E+06                                                                
 -------------------------------------------------------------------------------
 
 SOLVING FOR HEAD 
 INITIAL HNEW IS AN EXACT SOLUTION.

 NO OUTPUT CONTROL FOR STRESS PERIOD   25   TIME STEP  386

 -------------------------------------------------------------------------------
                             SWR1 OUTPUT PRINT TIMES
                        STRESS PERIOD   25   TIME STEP   386
 --------------- --------------- --------------- --------------- ---------------
     0.13272E+06                                                                
 -------------------------------------------------------------------------------
 
 SOLVING FOR HEAD 
 INITIAL HNEW IS AN EXACT SOLUTION.

 NO OUTPUT CONTROL FOR STRESS PERIOD   25   TIME STEP  387

 -------------------------------------------------------------------------------
                             SWR1 OUTPUT PRINT TIMES
                        STRESS PERIOD   25   TIME STEP   387
 --------------- --------------- --------------- --------------- ---------------
     0.13284E+06                                                                
 -------------------------------------------------------------------------------
 
 SOLVING FOR HEAD 
 INITIAL HNEW IS AN EXACT SOLUTION.

 NO OUTPUT CONTROL FOR STRESS PERIOD   25   TIME STEP  388

 -------------------------------------------------------------------------------
                             SWR1 OUTPUT PRINT TIMES
                        STRESS PERIOD   25   TIME STEP   388
 --------------- --------------- --------------- --------------- ---------------
     0.13296E+06                                                                
 -------------------------------------------------------------------------------
 
 SOLVING FOR HEAD 
 INITIAL HNEW IS AN EXACT SOLUTION.

 NO OUTPUT CONTROL FOR STRESS PERIOD   25   TIME STEP  389

 -------------------------------------------------------------------------------
                             SWR1 OUTPUT PRINT TIMES
                        STRESS PERIOD   25   TIME STEP   389
 --------------- --------------- --------------- --------------- ---------------
     0.13308E+06                                                                
 -------------------------------------------------------------------------------
 
 SOLVING FOR HEAD 
 INITIAL HNEW IS AN EXACT SOLUTION.

 NO OUTPUT CONTROL FOR STRESS PERIOD   25   TIME STEP  390

 -------------------------------------------------------------------------------
                             SWR1 OUTPUT PRINT TIMES
                        STRESS PERIOD   25   TIME STEP   390
 --------------- --------------- --------------- --------------- ---------------
     0.13320E+06                                                                
 -------------------------------------------------------------------------------
 
 SOLVING FOR HEAD 
 INITIAL HNEW IS AN EXACT SOLUTION.

 NO OUTPUT CONTROL FOR STRESS PERIOD   25   TIME STEP  391

 -------------------------------------------------------------------------------
                             SWR1 OUTPUT PRINT TIMES
                        STRESS PERIOD   25   TIME STEP   391
 --------------- --------------- --------------- --------------- ---------------
     0.13332E+06                                                                
 -------------------------------------------------------------------------------
 
 SOLVING FOR HEAD 
 INITIAL HNEW IS AN EXACT SOLUTION.

 NO OUTPUT CONTROL FOR STRESS PERIOD   25   TIME STEP  392

 -------------------------------------------------------------------------------
                             SWR1 OUTPUT PRINT TIMES
                        STRESS PERIOD   25   TIME STEP   392
 --------------- --------------- --------------- --------------- ---------------
     0.13344E+06                                                                
 -------------------------------------------------------------------------------
 
 SOLVING FOR HEAD 
 INITIAL HNEW IS AN EXACT SOLUTION.

 NO OUTPUT CONTROL FOR STRESS PERIOD   25   TIME STEP  393

 -------------------------------------------------------------------------------
                             SWR1 OUTPUT PRINT TIMES
                        STRESS PERIOD   25   TIME STEP   393
 --------------- --------------- --------------- --------------- ---------------
     0.13356E+06                                                                
 -------------------------------------------------------------------------------
 
 SOLVING FOR HEAD 
 INITIAL HNEW IS AN EXACT SOLUTION.

 NO OUTPUT CONTROL FOR STRESS PERIOD   25   TIME STEP  394

 -------------------------------------------------------------------------------
                             SWR1 OUTPUT PRINT TIMES
                        STRESS PERIOD   25   TIME STEP   394
 --------------- --------------- --------------- --------------- ---------------
     0.13368E+06                                                                
 -------------------------------------------------------------------------------
 
 SOLVING FOR HEAD 
 INITIAL HNEW IS AN EXACT SOLUTION.

 NO OUTPUT CONTROL FOR STRESS PERIOD   25   TIME STEP  395

 -------------------------------------------------------------------------------
                             SWR1 OUTPUT PRINT TIMES
                        STRESS PERIOD   25   TIME STEP   395
 --------------- --------------- --------------- --------------- ---------------
     0.13380E+06                                                                
 -------------------------------------------------------------------------------
 
 SOLVING FOR HEAD 
 INITIAL HNEW IS AN EXACT SOLUTION.

 NO OUTPUT CONTROL FOR STRESS PERIOD   25   TIME STEP  396

 -------------------------------------------------------------------------------
                             SWR1 OUTPUT PRINT TIMES
                        STRESS PERIOD   25   TIME STEP   396
 --------------- --------------- --------------- --------------- ---------------
     0.13392E+06                                                                
 -------------------------------------------------------------------------------
 
 SOLVING FOR HEAD 
 INITIAL HNEW IS AN EXACT SOLUTION.

 NO OUTPUT CONTROL FOR STRESS PERIOD   25   TIME STEP  397

 -------------------------------------------------------------------------------
                             SWR1 OUTPUT PRINT TIMES
                        STRESS PERIOD   25   TIME STEP   397
 --------------- --------------- --------------- --------------- ---------------
     0.13404E+06                                                                
 -------------------------------------------------------------------------------
 
 SOLVING FOR HEAD 
 INITIAL HNEW IS AN EXACT SOLUTION.

 NO OUTPUT CONTROL FOR STRESS PERIOD   25   TIME STEP  398

 -------------------------------------------------------------------------------
                             SWR1 OUTPUT PRINT TIMES
                        STRESS PERIOD   25   TIME STEP   398
 --------------- --------------- --------------- --------------- ---------------
     0.13416E+06                                                                
 -------------------------------------------------------------------------------
 
 SOLVING FOR HEAD 
 INITIAL HNEW IS AN EXACT SOLUTION.

 NO OUTPUT CONTROL FOR STRESS PERIOD   25   TIME STEP  399

 -------------------------------------------------------------------------------
                             SWR1 OUTPUT PRINT TIMES
                        STRESS PERIOD   25   TIME STEP   399
 --------------- --------------- --------------- --------------- ---------------
     0.13428E+06                                                                
 -------------------------------------------------------------------------------
 
 SOLVING FOR HEAD 
 INITIAL HNEW IS AN EXACT SOLUTION.

 NO OUTPUT CONTROL FOR STRESS PERIOD   25   TIME STEP  400

 -------------------------------------------------------------------------------
                             SWR1 OUTPUT PRINT TIMES
                        STRESS PERIOD   25   TIME STEP   400
 --------------- --------------- --------------- --------------- ---------------
     0.13440E+06                                                                
 -------------------------------------------------------------------------------
 
 SOLVING FOR HEAD 
 INITIAL HNEW IS AN EXACT SOLUTION.

 NO OUTPUT CONTROL FOR STRESS PERIOD   25   TIME STEP  401

 -------------------------------------------------------------------------------
                             SWR1 OUTPUT PRINT TIMES
                        STRESS PERIOD   25   TIME STEP   401
 --------------- --------------- --------------- --------------- ---------------
     0.13452E+06                                                                
 -------------------------------------------------------------------------------
 
 SOLVING FOR HEAD 
 INITIAL HNEW IS AN EXACT SOLUTION.

 NO OUTPUT CONTROL FOR STRESS PERIOD   25   TIME STEP  402

 -------------------------------------------------------------------------------
                             SWR1 OUTPUT PRINT TIMES
                        STRESS PERIOD   25   TIME STEP   402
 --------------- --------------- --------------- --------------- ---------------
     0.13464E+06                                                                
 -------------------------------------------------------------------------------
 
 SOLVING FOR HEAD 
 INITIAL HNEW IS AN EXACT SOLUTION.

 NO OUTPUT CONTROL FOR STRESS PERIOD   25   TIME STEP  403

 -------------------------------------------------------------------------------
                             SWR1 OUTPUT PRINT TIMES
                        STRESS PERIOD   25   TIME STEP   403
 --------------- --------------- --------------- --------------- ---------------
     0.13476E+06                                                                
 -------------------------------------------------------------------------------
 
 SOLVING FOR HEAD 
 INITIAL HNEW IS AN EXACT SOLUTION.

 NO OUTPUT CONTROL FOR STRESS PERIOD   25   TIME STEP  404

 -------------------------------------------------------------------------------
                             SWR1 OUTPUT PRINT TIMES
                        STRESS PERIOD   25   TIME STEP   404
 --------------- --------------- --------------- --------------- ---------------
     0.13488E+06                                                                
 -------------------------------------------------------------------------------
 
 SOLVING FOR HEAD 
 INITIAL HNEW IS AN EXACT SOLUTION.

 NO OUTPUT CONTROL FOR STRESS PERIOD   25   TIME STEP  405

 -------------------------------------------------------------------------------
                             SWR1 OUTPUT PRINT TIMES
                        STRESS PERIOD   25   TIME STEP   405
 --------------- --------------- --------------- --------------- ---------------
     0.13500E+06                                                                
 -------------------------------------------------------------------------------
 
 SOLVING FOR HEAD 
 INITIAL HNEW IS AN EXACT SOLUTION.

 NO OUTPUT CONTROL FOR STRESS PERIOD   25   TIME STEP  406

 -------------------------------------------------------------------------------
                             SWR1 OUTPUT PRINT TIMES
                        STRESS PERIOD   25   TIME STEP   406
 --------------- --------------- --------------- --------------- ---------------
     0.13512E+06                                                                
 -------------------------------------------------------------------------------
 
 SOLVING FOR HEAD 
 INITIAL HNEW IS AN EXACT SOLUTION.

 NO OUTPUT CONTROL FOR STRESS PERIOD   25   TIME STEP  407

 -------------------------------------------------------------------------------
                             SWR1 OUTPUT PRINT TIMES
                        STRESS PERIOD   25   TIME STEP   407
 --------------- --------------- --------------- --------------- ---------------
     0.13524E+06                                                                
 -------------------------------------------------------------------------------
 
 SOLVING FOR HEAD 
 INITIAL HNEW IS AN EXACT SOLUTION.

 NO OUTPUT CONTROL FOR STRESS PERIOD   25   TIME STEP  408

 -------------------------------------------------------------------------------
                             SWR1 OUTPUT PRINT TIMES
                        STRESS PERIOD   25   TIME STEP   408
 --------------- --------------- --------------- --------------- ---------------
     0.13536E+06                                                                
 -------------------------------------------------------------------------------
 
 SOLVING FOR HEAD 
 INITIAL HNEW IS AN EXACT SOLUTION.

 NO OUTPUT CONTROL FOR STRESS PERIOD   25   TIME STEP  409

 -------------------------------------------------------------------------------
                             SWR1 OUTPUT PRINT TIMES
                        STRESS PERIOD   25   TIME STEP   409
 --------------- --------------- --------------- --------------- ---------------
     0.13548E+06                                                                
 -------------------------------------------------------------------------------
 
 SOLVING FOR HEAD 
 INITIAL HNEW IS AN EXACT SOLUTION.

 NO OUTPUT CONTROL FOR STRESS PERIOD   25   TIME STEP  410

 -------------------------------------------------------------------------------
                             SWR1 OUTPUT PRINT TIMES
                        STRESS PERIOD   25   TIME STEP   410
 --------------- --------------- --------------- --------------- ---------------
     0.13560E+06                                                                
 -------------------------------------------------------------------------------
 
 SOLVING FOR HEAD 
 INITIAL HNEW IS AN EXACT SOLUTION.

 NO OUTPUT CONTROL FOR STRESS PERIOD   25   TIME STEP  411

 -------------------------------------------------------------------------------
                             SWR1 OUTPUT PRINT TIMES
                        STRESS PERIOD   25   TIME STEP   411
 --------------- --------------- --------------- --------------- ---------------
     0.13572E+06                                                                
 -------------------------------------------------------------------------------
 
 SOLVING FOR HEAD 
 INITIAL HNEW IS AN EXACT SOLUTION.

 NO OUTPUT CONTROL FOR STRESS PERIOD   25   TIME STEP  412

 -------------------------------------------------------------------------------
                             SWR1 OUTPUT PRINT TIMES
                        STRESS PERIOD   25   TIME STEP   412
 --------------- --------------- --------------- --------------- ---------------
     0.13584E+06                                                                
 -------------------------------------------------------------------------------
 
 SOLVING FOR HEAD 
 INITIAL HNEW IS AN EXACT SOLUTION.

 NO OUTPUT CONTROL FOR STRESS PERIOD   25   TIME STEP  413

 -------------------------------------------------------------------------------
                             SWR1 OUTPUT PRINT TIMES
                        STRESS PERIOD   25   TIME STEP   413
 --------------- --------------- --------------- --------------- ---------------
     0.13596E+06                                                                
 -------------------------------------------------------------------------------
 
 SOLVING FOR HEAD 
 INITIAL HNEW IS AN EXACT SOLUTION.

 NO OUTPUT CONTROL FOR STRESS PERIOD   25   TIME STEP  414

 -------------------------------------------------------------------------------
                             SWR1 OUTPUT PRINT TIMES
                        STRESS PERIOD   25   TIME STEP   414
 --------------- --------------- --------------- --------------- ---------------
     0.13608E+06                                                                
 -------------------------------------------------------------------------------
 
 SOLVING FOR HEAD 
 INITIAL HNEW IS AN EXACT SOLUTION.

 NO OUTPUT CONTROL FOR STRESS PERIOD   25   TIME STEP  415

 -------------------------------------------------------------------------------
                             SWR1 OUTPUT PRINT TIMES
                        STRESS PERIOD   25   TIME STEP   415
 --------------- --------------- --------------- --------------- ---------------
     0.13620E+06                                                                
 -------------------------------------------------------------------------------
 
 SOLVING FOR HEAD 
 INITIAL HNEW IS AN EXACT SOLUTION.

 NO OUTPUT CONTROL FOR STRESS PERIOD   25   TIME STEP  416

 -------------------------------------------------------------------------------
                             SWR1 OUTPUT PRINT TIMES
                        STRESS PERIOD   25   TIME STEP   416
 --------------- --------------- --------------- --------------- ---------------
     0.13632E+06                                                                
 -------------------------------------------------------------------------------
 
 SOLVING FOR HEAD 
 INITIAL HNEW IS AN EXACT SOLUTION.

 NO OUTPUT CONTROL FOR STRESS PERIOD   25   TIME STEP  417

 -------------------------------------------------------------------------------
                             SWR1 OUTPUT PRINT TIMES
                        STRESS PERIOD   25   TIME STEP   417
 --------------- --------------- --------------- --------------- ---------------
     0.13644E+06                                                                
 -------------------------------------------------------------------------------
 
 SOLVING FOR HEAD 
 INITIAL HNEW IS AN EXACT SOLUTION.

 NO OUTPUT CONTROL FOR STRESS PERIOD   25   TIME STEP  418

 -------------------------------------------------------------------------------
                             SWR1 OUTPUT PRINT TIMES
                        STRESS PERIOD   25   TIME STEP   418
 --------------- --------------- --------------- --------------- ---------------
     0.13656E+06                                                                
 -------------------------------------------------------------------------------
 
 SOLVING FOR HEAD 
 INITIAL HNEW IS AN EXACT SOLUTION.

 NO OUTPUT CONTROL FOR STRESS PERIOD   25   TIME STEP  419

 -------------------------------------------------------------------------------
                             SWR1 OUTPUT PRINT TIMES
                        STRESS PERIOD   25   TIME STEP   419
 --------------- --------------- --------------- --------------- ---------------
     0.13668E+06                                                                
 -------------------------------------------------------------------------------
 
 SOLVING FOR HEAD 
 INITIAL HNEW IS AN EXACT SOLUTION.

 NO OUTPUT CONTROL FOR STRESS PERIOD   25   TIME STEP  420

 -------------------------------------------------------------------------------
                             SWR1 OUTPUT PRINT TIMES
                        STRESS PERIOD   25   TIME STEP   420
 --------------- --------------- --------------- --------------- ---------------
     0.13680E+06                                                                
 -------------------------------------------------------------------------------
 
 SOLVING FOR HEAD 
 INITIAL HNEW IS AN EXACT SOLUTION.

 NO OUTPUT CONTROL FOR STRESS PERIOD   25   TIME STEP  421

 -------------------------------------------------------------------------------
                             SWR1 OUTPUT PRINT TIMES
                        STRESS PERIOD   25   TIME STEP   421
 --------------- --------------- --------------- --------------- ---------------
     0.13692E+06                                                                
 -------------------------------------------------------------------------------
 
 SOLVING FOR HEAD 
 INITIAL HNEW IS AN EXACT SOLUTION.

 NO OUTPUT CONTROL FOR STRESS PERIOD   25   TIME STEP  422

 -------------------------------------------------------------------------------
                             SWR1 OUTPUT PRINT TIMES
                        STRESS PERIOD   25   TIME STEP   422
 --------------- --------------- --------------- --------------- ---------------
     0.13704E+06                                                                
 -------------------------------------------------------------------------------
 
 SOLVING FOR HEAD 
 INITIAL HNEW IS AN EXACT SOLUTION.

 NO OUTPUT CONTROL FOR STRESS PERIOD   25   TIME STEP  423

 -------------------------------------------------------------------------------
                             SWR1 OUTPUT PRINT TIMES
                        STRESS PERIOD   25   TIME STEP   423
 --------------- --------------- --------------- --------------- ---------------
     0.13716E+06                                                                
 -------------------------------------------------------------------------------
 
 SOLVING FOR HEAD 
 INITIAL HNEW IS AN EXACT SOLUTION.

 NO OUTPUT CONTROL FOR STRESS PERIOD   25   TIME STEP  424

 -------------------------------------------------------------------------------
                             SWR1 OUTPUT PRINT TIMES
                        STRESS PERIOD   25   TIME STEP   424
 --------------- --------------- --------------- --------------- ---------------
     0.13728E+06                                                                
 -------------------------------------------------------------------------------
 
 SOLVING FOR HEAD 
 INITIAL HNEW IS AN EXACT SOLUTION.

 NO OUTPUT CONTROL FOR STRESS PERIOD   25   TIME STEP  425

 -------------------------------------------------------------------------------
                             SWR1 OUTPUT PRINT TIMES
                        STRESS PERIOD   25   TIME STEP   425
 --------------- --------------- --------------- --------------- ---------------
     0.13740E+06                                                                
 -------------------------------------------------------------------------------
 
 SOLVING FOR HEAD 
 INITIAL HNEW IS AN EXACT SOLUTION.

 NO OUTPUT CONTROL FOR STRESS PERIOD   25   TIME STEP  426

 -------------------------------------------------------------------------------
                             SWR1 OUTPUT PRINT TIMES
                        STRESS PERIOD   25   TIME STEP   426
 --------------- --------------- --------------- --------------- ---------------
     0.13752E+06                                                                
 -------------------------------------------------------------------------------
 
 SOLVING FOR HEAD 
 INITIAL HNEW IS AN EXACT SOLUTION.

 NO OUTPUT CONTROL FOR STRESS PERIOD   25   TIME STEP  427

 -------------------------------------------------------------------------------
                             SWR1 OUTPUT PRINT TIMES
                        STRESS PERIOD   25   TIME STEP   427
 --------------- --------------- --------------- --------------- ---------------
     0.13764E+06                                                                
 -------------------------------------------------------------------------------
 
 SOLVING FOR HEAD 
 INITIAL HNEW IS AN EXACT SOLUTION.

 NO OUTPUT CONTROL FOR STRESS PERIOD   25   TIME STEP  428

 -------------------------------------------------------------------------------
                             SWR1 OUTPUT PRINT TIMES
                        STRESS PERIOD   25   TIME STEP   428
 --------------- --------------- --------------- --------------- ---------------
     0.13776E+06                                                                
 -------------------------------------------------------------------------------
 
 SOLVING FOR HEAD 
 INITIAL HNEW IS AN EXACT SOLUTION.

 NO OUTPUT CONTROL FOR STRESS PERIOD   25   TIME STEP  429

 -------------------------------------------------------------------------------
                             SWR1 OUTPUT PRINT TIMES
                        STRESS PERIOD   25   TIME STEP   429
 --------------- --------------- --------------- --------------- ---------------
     0.13788E+06                                                                
 -------------------------------------------------------------------------------
 
 SOLVING FOR HEAD 
 INITIAL HNEW IS AN EXACT SOLUTION.

 NO OUTPUT CONTROL FOR STRESS PERIOD   25   TIME STEP  430

 -------------------------------------------------------------------------------
                             SWR1 OUTPUT PRINT TIMES
                        STRESS PERIOD   25   TIME STEP   430
 --------------- --------------- --------------- --------------- ---------------
     0.13800E+06                                                                
 -------------------------------------------------------------------------------
 
 SOLVING FOR HEAD 
 INITIAL HNEW IS AN EXACT SOLUTION.

 NO OUTPUT CONTROL FOR STRESS PERIOD   25   TIME STEP  431

 -------------------------------------------------------------------------------
                             SWR1 OUTPUT PRINT TIMES
                        STRESS PERIOD   25   TIME STEP   431
 --------------- --------------- --------------- --------------- ---------------
     0.13812E+06                                                                
 -------------------------------------------------------------------------------
 
 SOLVING FOR HEAD 
 INITIAL HNEW IS AN EXACT SOLUTION.

 NO OUTPUT CONTROL FOR STRESS PERIOD   25   TIME STEP  432

 -------------------------------------------------------------------------------
                             SWR1 OUTPUT PRINT TIMES
                        STRESS PERIOD   25   TIME STEP   432
 --------------- --------------- --------------- --------------- ---------------
     0.13824E+06                                                                
 -------------------------------------------------------------------------------
 
 SOLVING FOR HEAD 
 INITIAL HNEW IS AN EXACT SOLUTION.

 NO OUTPUT CONTROL FOR STRESS PERIOD   25   TIME STEP  433

 -------------------------------------------------------------------------------
                             SWR1 OUTPUT PRINT TIMES
                        STRESS PERIOD   25   TIME STEP   433
 --------------- --------------- --------------- --------------- ---------------
     0.13836E+06                                                                
 -------------------------------------------------------------------------------
 
 SOLVING FOR HEAD 
 INITIAL HNEW IS AN EXACT SOLUTION.

 NO OUTPUT CONTROL FOR STRESS PERIOD   25   TIME STEP  434

 -------------------------------------------------------------------------------
                             SWR1 OUTPUT PRINT TIMES
                        STRESS PERIOD   25   TIME STEP   434
 --------------- --------------- --------------- --------------- ---------------
     0.13848E+06                                                                
 -------------------------------------------------------------------------------
 
 SOLVING FOR HEAD 
 INITIAL HNEW IS AN EXACT SOLUTION.

 NO OUTPUT CONTROL FOR STRESS PERIOD   25   TIME STEP  435

 -------------------------------------------------------------------------------
                             SWR1 OUTPUT PRINT TIMES
                        STRESS PERIOD   25   TIME STEP   435
 --------------- --------------- --------------- --------------- ---------------
     0.13860E+06                                                                
 -------------------------------------------------------------------------------
 
 SOLVING FOR HEAD 
 INITIAL HNEW IS AN EXACT SOLUTION.

 NO OUTPUT CONTROL FOR STRESS PERIOD   25   TIME STEP  436

 -------------------------------------------------------------------------------
                             SWR1 OUTPUT PRINT TIMES
                        STRESS PERIOD   25   TIME STEP   436
 --------------- --------------- --------------- --------------- ---------------
     0.13872E+06                                                                
 -------------------------------------------------------------------------------
 
 SOLVING FOR HEAD 
 INITIAL HNEW IS AN EXACT SOLUTION.

 NO OUTPUT CONTROL FOR STRESS PERIOD   25   TIME STEP  437

 -------------------------------------------------------------------------------
                             SWR1 OUTPUT PRINT TIMES
                        STRESS PERIOD   25   TIME STEP   437
 --------------- --------------- --------------- --------------- ---------------
     0.13884E+06                                                                
 -------------------------------------------------------------------------------
 
 SOLVING FOR HEAD 
 INITIAL HNEW IS AN EXACT SOLUTION.

 NO OUTPUT CONTROL FOR STRESS PERIOD   25   TIME STEP  438

 -------------------------------------------------------------------------------
                             SWR1 OUTPUT PRINT TIMES
                        STRESS PERIOD   25   TIME STEP   438
 --------------- --------------- --------------- --------------- ---------------
     0.13896E+06                                                                
 -------------------------------------------------------------------------------
 
 SOLVING FOR HEAD 
 INITIAL HNEW IS AN EXACT SOLUTION.

 NO OUTPUT CONTROL FOR STRESS PERIOD   25   TIME STEP  439

 -------------------------------------------------------------------------------
                             SWR1 OUTPUT PRINT TIMES
                        STRESS PERIOD   25   TIME STEP   439
 --------------- --------------- --------------- --------------- ---------------
     0.13908E+06                                                                
 -------------------------------------------------------------------------------
 
 SOLVING FOR HEAD 
 INITIAL HNEW IS AN EXACT SOLUTION.

 NO OUTPUT CONTROL FOR STRESS PERIOD   25   TIME STEP  440

 -------------------------------------------------------------------------------
                             SWR1 OUTPUT PRINT TIMES
                        STRESS PERIOD   25   TIME STEP   440
 --------------- --------------- --------------- --------------- ---------------
     0.13920E+06                                                                
 -------------------------------------------------------------------------------
 
 SOLVING FOR HEAD 
 INITIAL HNEW IS AN EXACT SOLUTION.

 NO OUTPUT CONTROL FOR STRESS PERIOD   25   TIME STEP  441

 -------------------------------------------------------------------------------
                             SWR1 OUTPUT PRINT TIMES
                        STRESS PERIOD   25   TIME STEP   441
 --------------- --------------- --------------- --------------- ---------------
     0.13932E+06                                                                
 -------------------------------------------------------------------------------
 
 SOLVING FOR HEAD 
 INITIAL HNEW IS AN EXACT SOLUTION.

 NO OUTPUT CONTROL FOR STRESS PERIOD   25   TIME STEP  442

 -------------------------------------------------------------------------------
                             SWR1 OUTPUT PRINT TIMES
                        STRESS PERIOD   25   TIME STEP   442
 --------------- --------------- --------------- --------------- ---------------
     0.13944E+06                                                                
 -------------------------------------------------------------------------------
 
 SOLVING FOR HEAD 
 INITIAL HNEW IS AN EXACT SOLUTION.

 NO OUTPUT CONTROL FOR STRESS PERIOD   25   TIME STEP  443

 -------------------------------------------------------------------------------
                             SWR1 OUTPUT PRINT TIMES
                        STRESS PERIOD   25   TIME STEP   443
 --------------- --------------- --------------- --------------- ---------------
     0.13956E+06                                                                
 -------------------------------------------------------------------------------
 
 SOLVING FOR HEAD 
 INITIAL HNEW IS AN EXACT SOLUTION.

 NO OUTPUT CONTROL FOR STRESS PERIOD   25   TIME STEP  444

 -------------------------------------------------------------------------------
                             SWR1 OUTPUT PRINT TIMES
                        STRESS PERIOD   25   TIME STEP   444
 --------------- --------------- --------------- --------------- ---------------
     0.13968E+06                                                                
 -------------------------------------------------------------------------------
 
 SOLVING FOR HEAD 
 INITIAL HNEW IS AN EXACT SOLUTION.

 NO OUTPUT CONTROL FOR STRESS PERIOD   25   TIME STEP  445

 -------------------------------------------------------------------------------
                             SWR1 OUTPUT PRINT TIMES
                        STRESS PERIOD   25   TIME STEP   445
 --------------- --------------- --------------- --------------- ---------------
     0.13980E+06                                                                
 -------------------------------------------------------------------------------
 
 SOLVING FOR HEAD 
 INITIAL HNEW IS AN EXACT SOLUTION.

 NO OUTPUT CONTROL FOR STRESS PERIOD   25   TIME STEP  446

 -------------------------------------------------------------------------------
                             SWR1 OUTPUT PRINT TIMES
                        STRESS PERIOD   25   TIME STEP   446
 --------------- --------------- --------------- --------------- ---------------
     0.13992E+06                                                                
 -------------------------------------------------------------------------------
 
 SOLVING FOR HEAD 
 INITIAL HNEW IS AN EXACT SOLUTION.

 NO OUTPUT CONTROL FOR STRESS PERIOD   25   TIME STEP  447

 -------------------------------------------------------------------------------
                             SWR1 OUTPUT PRINT TIMES
                        STRESS PERIOD   25   TIME STEP   447
 --------------- --------------- --------------- --------------- ---------------
     0.14004E+06                                                                
 -------------------------------------------------------------------------------
 
 SOLVING FOR HEAD 
 INITIAL HNEW IS AN EXACT SOLUTION.

 NO OUTPUT CONTROL FOR STRESS PERIOD   25   TIME STEP  448

 -------------------------------------------------------------------------------
                             SWR1 OUTPUT PRINT TIMES
                        STRESS PERIOD   25   TIME STEP   448
 --------------- --------------- --------------- --------------- ---------------
     0.14016E+06                                                                
 -------------------------------------------------------------------------------
 
 SOLVING FOR HEAD 
 INITIAL HNEW IS AN EXACT SOLUTION.

 NO OUTPUT CONTROL FOR STRESS PERIOD   25   TIME STEP  449

 -------------------------------------------------------------------------------
                             SWR1 OUTPUT PRINT TIMES
                        STRESS PERIOD   25   TIME STEP   449
 --------------- --------------- --------------- --------------- ---------------
     0.14028E+06                                                                
 -------------------------------------------------------------------------------
 
 SOLVING FOR HEAD 
 INITIAL HNEW IS AN EXACT SOLUTION.

 NO OUTPUT CONTROL FOR STRESS PERIOD   25   TIME STEP  450

 -------------------------------------------------------------------------------
                             SWR1 OUTPUT PRINT TIMES
                        STRESS PERIOD   25   TIME STEP   450
 --------------- --------------- --------------- --------------- ---------------
     0.14040E+06                                                                
 -------------------------------------------------------------------------------
 
 SOLVING FOR HEAD 
 INITIAL HNEW IS AN EXACT SOLUTION.

 NO OUTPUT CONTROL FOR STRESS PERIOD   25   TIME STEP  451

 -------------------------------------------------------------------------------
                             SWR1 OUTPUT PRINT TIMES
                        STRESS PERIOD   25   TIME STEP   451
 --------------- --------------- --------------- --------------- ---------------
     0.14052E+06                                                                
 -------------------------------------------------------------------------------
 
 SOLVING FOR HEAD 
 INITIAL HNEW IS AN EXACT SOLUTION.

 NO OUTPUT CONTROL FOR STRESS PERIOD   25   TIME STEP  452

 -------------------------------------------------------------------------------
                             SWR1 OUTPUT PRINT TIMES
                        STRESS PERIOD   25   TIME STEP   452
 --------------- --------------- --------------- --------------- ---------------
     0.14064E+06                                                                
 -------------------------------------------------------------------------------
 
 SOLVING FOR HEAD 
 INITIAL HNEW IS AN EXACT SOLUTION.

 NO OUTPUT CONTROL FOR STRESS PERIOD   25   TIME STEP  453

 -------------------------------------------------------------------------------
                             SWR1 OUTPUT PRINT TIMES
                        STRESS PERIOD   25   TIME STEP   453
 --------------- --------------- --------------- --------------- ---------------
     0.14076E+06                                                                
 -------------------------------------------------------------------------------
 
 SOLVING FOR HEAD 
 INITIAL HNEW IS AN EXACT SOLUTION.

 NO OUTPUT CONTROL FOR STRESS PERIOD   25   TIME STEP  454

 -------------------------------------------------------------------------------
                             SWR1 OUTPUT PRINT TIMES
                        STRESS PERIOD   25   TIME STEP   454
 --------------- --------------- --------------- --------------- ---------------
     0.14088E+06                                                                
 -------------------------------------------------------------------------------
 
 SOLVING FOR HEAD 
 INITIAL HNEW IS AN EXACT SOLUTION.

 NO OUTPUT CONTROL FOR STRESS PERIOD   25   TIME STEP  455

 -------------------------------------------------------------------------------
                             SWR1 OUTPUT PRINT TIMES
                        STRESS PERIOD   25   TIME STEP   455
 --------------- --------------- --------------- --------------- ---------------
     0.14100E+06                                                                
 -------------------------------------------------------------------------------
 
 SOLVING FOR HEAD 
 INITIAL HNEW IS AN EXACT SOLUTION.

 NO OUTPUT CONTROL FOR STRESS PERIOD   25   TIME STEP  456

 -------------------------------------------------------------------------------
                             SWR1 OUTPUT PRINT TIMES
                        STRESS PERIOD   25   TIME STEP   456
 --------------- --------------- --------------- --------------- ---------------
     0.14112E+06                                                                
 -------------------------------------------------------------------------------
 
 SOLVING FOR HEAD 
 INITIAL HNEW IS AN EXACT SOLUTION.

 NO OUTPUT CONTROL FOR STRESS PERIOD   25   TIME STEP  457

 -------------------------------------------------------------------------------
                             SWR1 OUTPUT PRINT TIMES
                        STRESS PERIOD   25   TIME STEP   457
 --------------- --------------- --------------- --------------- ---------------
     0.14124E+06                                                                
 -------------------------------------------------------------------------------
 
 SOLVING FOR HEAD 
 INITIAL HNEW IS AN EXACT SOLUTION.

 NO OUTPUT CONTROL FOR STRESS PERIOD   25   TIME STEP  458

 -------------------------------------------------------------------------------
                             SWR1 OUTPUT PRINT TIMES
                        STRESS PERIOD   25   TIME STEP   458
 --------------- --------------- --------------- --------------- ---------------
     0.14136E+06                                                                
 -------------------------------------------------------------------------------
 
 SOLVING FOR HEAD 
 INITIAL HNEW IS AN EXACT SOLUTION.

 NO OUTPUT CONTROL FOR STRESS PERIOD   25   TIME STEP  459

 -------------------------------------------------------------------------------
                             SWR1 OUTPUT PRINT TIMES
                        STRESS PERIOD   25   TIME STEP   459
 --------------- --------------- --------------- --------------- ---------------
     0.14148E+06                                                                
 -------------------------------------------------------------------------------
 
 SOLVING FOR HEAD 
 INITIAL HNEW IS AN EXACT SOLUTION.

 NO OUTPUT CONTROL FOR STRESS PERIOD   25   TIME STEP  460

 -------------------------------------------------------------------------------
                             SWR1 OUTPUT PRINT TIMES
                        STRESS PERIOD   25   TIME STEP   460
 --------------- --------------- --------------- --------------- ---------------
     0.14160E+06                                                                
 -------------------------------------------------------------------------------
 
 SOLVING FOR HEAD 
 INITIAL HNEW IS AN EXACT SOLUTION.

 NO OUTPUT CONTROL FOR STRESS PERIOD   25   TIME STEP  461

 -------------------------------------------------------------------------------
                             SWR1 OUTPUT PRINT TIMES
                        STRESS PERIOD   25   TIME STEP   461
 --------------- --------------- --------------- --------------- ---------------
     0.14172E+06                                                                
 -------------------------------------------------------------------------------
 
 SOLVING FOR HEAD 
 INITIAL HNEW IS AN EXACT SOLUTION.

 NO OUTPUT CONTROL FOR STRESS PERIOD   25   TIME STEP  462

 -------------------------------------------------------------------------------
                             SWR1 OUTPUT PRINT TIMES
                        STRESS PERIOD   25   TIME STEP   462
 --------------- --------------- --------------- --------------- ---------------
     0.14184E+06                                                                
 -------------------------------------------------------------------------------
 
 SOLVING FOR HEAD 
 INITIAL HNEW IS AN EXACT SOLUTION.

 NO OUTPUT CONTROL FOR STRESS PERIOD   25   TIME STEP  463

 -------------------------------------------------------------------------------
                             SWR1 OUTPUT PRINT TIMES
                        STRESS PERIOD   25   TIME STEP   463
 --------------- --------------- --------------- --------------- ---------------
     0.14196E+06                                                                
 -------------------------------------------------------------------------------
 
 SOLVING FOR HEAD 
 INITIAL HNEW IS AN EXACT SOLUTION.

 NO OUTPUT CONTROL FOR STRESS PERIOD   25   TIME STEP  464

 -------------------------------------------------------------------------------
                             SWR1 OUTPUT PRINT TIMES
                        STRESS PERIOD   25   TIME STEP   464
 --------------- --------------- --------------- --------------- ---------------
     0.14208E+06                                                                
 -------------------------------------------------------------------------------
 
 SOLVING FOR HEAD 
 INITIAL HNEW IS AN EXACT SOLUTION.

 NO OUTPUT CONTROL FOR STRESS PERIOD   25   TIME STEP  465

 -------------------------------------------------------------------------------
                             SWR1 OUTPUT PRINT TIMES
                        STRESS PERIOD   25   TIME STEP   465
 --------------- --------------- --------------- --------------- ---------------
     0.14220E+06                                                                
 -------------------------------------------------------------------------------
 
 SOLVING FOR HEAD 
 INITIAL HNEW IS AN EXACT SOLUTION.

 NO OUTPUT CONTROL FOR STRESS PERIOD   25   TIME STEP  466

 -------------------------------------------------------------------------------
                             SWR1 OUTPUT PRINT TIMES
                        STRESS PERIOD   25   TIME STEP   466
 --------------- --------------- --------------- --------------- ---------------
     0.14232E+06                                                                
 -------------------------------------------------------------------------------
 
 SOLVING FOR HEAD 
 INITIAL HNEW IS AN EXACT SOLUTION.

 NO OUTPUT CONTROL FOR STRESS PERIOD   25   TIME STEP  467

 -------------------------------------------------------------------------------
                             SWR1 OUTPUT PRINT TIMES
                        STRESS PERIOD   25   TIME STEP   467
 --------------- --------------- --------------- --------------- ---------------
     0.14244E+06                                                                
 -------------------------------------------------------------------------------
 
 SOLVING FOR HEAD 
 INITIAL HNEW IS AN EXACT SOLUTION.

 NO OUTPUT CONTROL FOR STRESS PERIOD   25   TIME STEP  468

 -------------------------------------------------------------------------------
                             SWR1 OUTPUT PRINT TIMES
                        STRESS PERIOD   25   TIME STEP   468
 --------------- --------------- --------------- --------------- ---------------
     0.14256E+06                                                                
 -------------------------------------------------------------------------------
 
 SOLVING FOR HEAD 
 INITIAL HNEW IS AN EXACT SOLUTION.

 NO OUTPUT CONTROL FOR STRESS PERIOD   25   TIME STEP  469

 -------------------------------------------------------------------------------
                             SWR1 OUTPUT PRINT TIMES
                        STRESS PERIOD   25   TIME STEP   469
 --------------- --------------- --------------- --------------- ---------------
     0.14268E+06                                                                
 -------------------------------------------------------------------------------
 
 SOLVING FOR HEAD 
 INITIAL HNEW IS AN EXACT SOLUTION.

 NO OUTPUT CONTROL FOR STRESS PERIOD   25   TIME STEP  470

 -------------------------------------------------------------------------------
                             SWR1 OUTPUT PRINT TIMES
                        STRESS PERIOD   25   TIME STEP   470
 --------------- --------------- --------------- --------------- ---------------
     0.14280E+06                                                                
 -------------------------------------------------------------------------------
 
 SOLVING FOR HEAD 
 INITIAL HNEW IS AN EXACT SOLUTION.

 NO OUTPUT CONTROL FOR STRESS PERIOD   25   TIME STEP  471

 -------------------------------------------------------------------------------
                             SWR1 OUTPUT PRINT TIMES
                        STRESS PERIOD   25   TIME STEP   471
 --------------- --------------- --------------- --------------- ---------------
     0.14292E+06                                                                
 -------------------------------------------------------------------------------
 
 SOLVING FOR HEAD 
 INITIAL HNEW IS AN EXACT SOLUTION.

 NO OUTPUT CONTROL FOR STRESS PERIOD   25   TIME STEP  472

 -------------------------------------------------------------------------------
                             SWR1 OUTPUT PRINT TIMES
                        STRESS PERIOD   25   TIME STEP   472
 --------------- --------------- --------------- --------------- ---------------
     0.14304E+06                                                                
 -------------------------------------------------------------------------------
 
 SOLVING FOR HEAD 
 INITIAL HNEW IS AN EXACT SOLUTION.

 NO OUTPUT CONTROL FOR STRESS PERIOD   25   TIME STEP  473

 -------------------------------------------------------------------------------
                             SWR1 OUTPUT PRINT TIMES
                        STRESS PERIOD   25   TIME STEP   473
 --------------- --------------- --------------- --------------- ---------------
     0.14316E+06                                                                
 -------------------------------------------------------------------------------
 
 SOLVING FOR HEAD 
 INITIAL HNEW IS AN EXACT SOLUTION.

 NO OUTPUT CONTROL FOR STRESS PERIOD   25   TIME STEP  474

 -------------------------------------------------------------------------------
                             SWR1 OUTPUT PRINT TIMES
                        STRESS PERIOD   25   TIME STEP   474
 --------------- --------------- --------------- --------------- ---------------
     0.14328E+06                                                                
 -------------------------------------------------------------------------------
 
 SOLVING FOR HEAD 
 INITIAL HNEW IS AN EXACT SOLUTION.

 NO OUTPUT CONTROL FOR STRESS PERIOD   25   TIME STEP  475

 -------------------------------------------------------------------------------
                             SWR1 OUTPUT PRINT TIMES
                        STRESS PERIOD   25   TIME STEP   475
 --------------- --------------- --------------- --------------- ---------------
     0.14340E+06                                                                
 -------------------------------------------------------------------------------
 
 SOLVING FOR HEAD 
 INITIAL HNEW IS AN EXACT SOLUTION.

 NO OUTPUT CONTROL FOR STRESS PERIOD   25   TIME STEP  476

 -------------------------------------------------------------------------------
                             SWR1 OUTPUT PRINT TIMES
                        STRESS PERIOD   25   TIME STEP   476
 --------------- --------------- --------------- --------------- ---------------
     0.14352E+06                                                                
 -------------------------------------------------------------------------------
 
 SOLVING FOR HEAD 
 INITIAL HNEW IS AN EXACT SOLUTION.

 NO OUTPUT CONTROL FOR STRESS PERIOD   25   TIME STEP  477

 -------------------------------------------------------------------------------
                             SWR1 OUTPUT PRINT TIMES
                        STRESS PERIOD   25   TIME STEP   477
 --------------- --------------- --------------- --------------- ---------------
     0.14364E+06                                                                
 -------------------------------------------------------------------------------
 
 SOLVING FOR HEAD 
 INITIAL HNEW IS AN EXACT SOLUTION.

 NO OUTPUT CONTROL FOR STRESS PERIOD   25   TIME STEP  478

 -------------------------------------------------------------------------------
                             SWR1 OUTPUT PRINT TIMES
                        STRESS PERIOD   25   TIME STEP   478
 --------------- --------------- --------------- --------------- ---------------
     0.14376E+06                                                                
 -------------------------------------------------------------------------------
 
 SOLVING FOR HEAD 
 INITIAL HNEW IS AN EXACT SOLUTION.

 NO OUTPUT CONTROL FOR STRESS PERIOD   25   TIME STEP  479

 -------------------------------------------------------------------------------
                             SWR1 OUTPUT PRINT TIMES
                        STRESS PERIOD   25   TIME STEP   479
 --------------- --------------- --------------- --------------- ---------------
     0.14388E+06                                                                
 -------------------------------------------------------------------------------
 
 SOLVING FOR HEAD 
 INITIAL HNEW IS AN EXACT SOLUTION.

 NO OUTPUT CONTROL FOR STRESS PERIOD   25   TIME STEP  480

 -------------------------------------------------------------------------------
                             SWR1 OUTPUT PRINT TIMES
                        STRESS PERIOD   25   TIME STEP   480
 --------------- --------------- --------------- --------------- ---------------
     0.14400E+06                                                                
 -------------------------------------------------------------------------------
 
 SOLVING FOR HEAD 
 INITIAL HNEW IS AN EXACT SOLUTION.

 NO OUTPUT CONTROL FOR STRESS PERIOD   25   TIME STEP  481

 -------------------------------------------------------------------------------
                             SWR1 OUTPUT PRINT TIMES
                        STRESS PERIOD   25   TIME STEP   481
 --------------- --------------- --------------- --------------- ---------------
     0.14412E+06                                                                
 -------------------------------------------------------------------------------
 
 SOLVING FOR HEAD 
 INITIAL HNEW IS AN EXACT SOLUTION.

 NO OUTPUT CONTROL FOR STRESS PERIOD   25   TIME STEP  482

 -------------------------------------------------------------------------------
                             SWR1 OUTPUT PRINT TIMES
                        STRESS PERIOD   25   TIME STEP   482
 --------------- --------------- --------------- --------------- ---------------
     0.14424E+06                                                                
 -------------------------------------------------------------------------------
 
 SOLVING FOR HEAD 
 INITIAL HNEW IS AN EXACT SOLUTION.

 NO OUTPUT CONTROL FOR STRESS PERIOD   25   TIME STEP  483

 -------------------------------------------------------------------------------
                             SWR1 OUTPUT PRINT TIMES
                        STRESS PERIOD   25   TIME STEP   483
 --------------- --------------- --------------- --------------- ---------------
     0.14436E+06                                                                
 -------------------------------------------------------------------------------
 
 SOLVING FOR HEAD 
 INITIAL HNEW IS AN EXACT SOLUTION.

 NO OUTPUT CONTROL FOR STRESS PERIOD   25   TIME STEP  484

 -------------------------------------------------------------------------------
                             SWR1 OUTPUT PRINT TIMES
                        STRESS PERIOD   25   TIME STEP   484
 --------------- --------------- --------------- --------------- ---------------
     0.14448E+06                                                                
 -------------------------------------------------------------------------------
 
 SOLVING FOR HEAD 
 INITIAL HNEW IS AN EXACT SOLUTION.

 NO OUTPUT CONTROL FOR STRESS PERIOD   25   TIME STEP  485

 -------------------------------------------------------------------------------
                             SWR1 OUTPUT PRINT TIMES
                        STRESS PERIOD   25   TIME STEP   485
 --------------- --------------- --------------- --------------- ---------------
     0.14460E+06                                                                
 -------------------------------------------------------------------------------
 
 SOLVING FOR HEAD 
 INITIAL HNEW IS AN EXACT SOLUTION.

 NO OUTPUT CONTROL FOR STRESS PERIOD   25   TIME STEP  486

 -------------------------------------------------------------------------------
                             SWR1 OUTPUT PRINT TIMES
                        STRESS PERIOD   25   TIME STEP   486
 --------------- --------------- --------------- --------------- ---------------
     0.14472E+06                                                                
 -------------------------------------------------------------------------------
 
 SOLVING FOR HEAD 
 INITIAL HNEW IS AN EXACT SOLUTION.

 NO OUTPUT CONTROL FOR STRESS PERIOD   25   TIME STEP  487

 -------------------------------------------------------------------------------
                             SWR1 OUTPUT PRINT TIMES
                        STRESS PERIOD   25   TIME STEP   487
 --------------- --------------- --------------- --------------- ---------------
     0.14484E+06                                                                
 -------------------------------------------------------------------------------
 
 SOLVING FOR HEAD 
 INITIAL HNEW IS AN EXACT SOLUTION.

 NO OUTPUT CONTROL FOR STRESS PERIOD   25   TIME STEP  488

 -------------------------------------------------------------------------------
                             SWR1 OUTPUT PRINT TIMES
                        STRESS PERIOD   25   TIME STEP   488
 --------------- --------------- --------------- --------------- ---------------
     0.14496E+06                                                                
 -------------------------------------------------------------------------------
 
 SOLVING FOR HEAD 
 INITIAL HNEW IS AN EXACT SOLUTION.

 NO OUTPUT CONTROL FOR STRESS PERIOD   25   TIME STEP  489

 -------------------------------------------------------------------------------
                             SWR1 OUTPUT PRINT TIMES
                        STRESS PERIOD   25   TIME STEP   489
 --------------- --------------- --------------- --------------- ---------------
     0.14508E+06                                                                
 -------------------------------------------------------------------------------
 
 SOLVING FOR HEAD 
 INITIAL HNEW IS AN EXACT SOLUTION.

 NO OUTPUT CONTROL FOR STRESS PERIOD   25   TIME STEP  490

 -------------------------------------------------------------------------------
                             SWR1 OUTPUT PRINT TIMES
                        STRESS PERIOD   25   TIME STEP   490
 --------------- --------------- --------------- --------------- ---------------
     0.14520E+06                                                                
 -------------------------------------------------------------------------------
 
 SOLVING FOR HEAD 
 INITIAL HNEW IS AN EXACT SOLUTION.

 NO OUTPUT CONTROL FOR STRESS PERIOD   25   TIME STEP  491

 -------------------------------------------------------------------------------
                             SWR1 OUTPUT PRINT TIMES
                        STRESS PERIOD   25   TIME STEP   491
 --------------- --------------- --------------- --------------- ---------------
     0.14532E+06                                                                
 -------------------------------------------------------------------------------
 
 SOLVING FOR HEAD 
 INITIAL HNEW IS AN EXACT SOLUTION.

 NO OUTPUT CONTROL FOR STRESS PERIOD   25   TIME STEP  492

 -------------------------------------------------------------------------------
                             SWR1 OUTPUT PRINT TIMES
                        STRESS PERIOD   25   TIME STEP   492
 --------------- --------------- --------------- --------------- ---------------
     0.14544E+06                                                                
 -------------------------------------------------------------------------------
 
 SOLVING FOR HEAD 
 INITIAL HNEW IS AN EXACT SOLUTION.

 NO OUTPUT CONTROL FOR STRESS PERIOD   25   TIME STEP  493

 -------------------------------------------------------------------------------
                             SWR1 OUTPUT PRINT TIMES
                        STRESS PERIOD   25   TIME STEP   493
 --------------- --------------- --------------- --------------- ---------------
     0.14556E+06                                                                
 -------------------------------------------------------------------------------
 
 SOLVING FOR HEAD 
 INITIAL HNEW IS AN EXACT SOLUTION.

 NO OUTPUT CONTROL FOR STRESS PERIOD   25   TIME STEP  494

 -------------------------------------------------------------------------------
                             SWR1 OUTPUT PRINT TIMES
                        STRESS PERIOD   25   TIME STEP   494
 --------------- --------------- --------------- --------------- ---------------
     0.14568E+06                                                                
 -------------------------------------------------------------------------------
 
 SOLVING FOR HEAD 
 INITIAL HNEW IS AN EXACT SOLUTION.

 NO OUTPUT CONTROL FOR STRESS PERIOD   25   TIME STEP  495

 -------------------------------------------------------------------------------
                             SWR1 OUTPUT PRINT TIMES
                        STRESS PERIOD   25   TIME STEP   495
 --------------- --------------- --------------- --------------- ---------------
     0.14580E+06                                                                
 -------------------------------------------------------------------------------
 
 SOLVING FOR HEAD 
 INITIAL HNEW IS AN EXACT SOLUTION.

 NO OUTPUT CONTROL FOR STRESS PERIOD   25   TIME STEP  496

 -------------------------------------------------------------------------------
                             SWR1 OUTPUT PRINT TIMES
                        STRESS PERIOD   25   TIME STEP   496
 --------------- --------------- --------------- --------------- ---------------
     0.14592E+06                                                                
 -------------------------------------------------------------------------------
 
 SOLVING FOR HEAD 
 INITIAL HNEW IS AN EXACT SOLUTION.

 NO OUTPUT CONTROL FOR STRESS PERIOD   25   TIME STEP  497

 -------------------------------------------------------------------------------
                             SWR1 OUTPUT PRINT TIMES
                        STRESS PERIOD   25   TIME STEP   497
 --------------- --------------- --------------- --------------- ---------------
     0.14604E+06                                                                
 -------------------------------------------------------------------------------
 
 SOLVING FOR HEAD 
 INITIAL HNEW IS AN EXACT SOLUTION.

 NO OUTPUT CONTROL FOR STRESS PERIOD   25   TIME STEP  498

 -------------------------------------------------------------------------------
                             SWR1 OUTPUT PRINT TIMES
                        STRESS PERIOD   25   TIME STEP   498
 --------------- --------------- --------------- --------------- ---------------
     0.14616E+06                                                                
 -------------------------------------------------------------------------------
 
 SOLVING FOR HEAD 
 INITIAL HNEW IS AN EXACT SOLUTION.

 NO OUTPUT CONTROL FOR STRESS PERIOD   25   TIME STEP  499

 -------------------------------------------------------------------------------
                             SWR1 OUTPUT PRINT TIMES
                        STRESS PERIOD   25   TIME STEP   499
 --------------- --------------- --------------- --------------- ---------------
     0.14628E+06                                                                
 -------------------------------------------------------------------------------
 
 SOLVING FOR HEAD 
 INITIAL HNEW IS AN EXACT SOLUTION.

 NO OUTPUT CONTROL FOR STRESS PERIOD   25   TIME STEP  500

 -------------------------------------------------------------------------------
                             SWR1 OUTPUT PRINT TIMES
                        STRESS PERIOD   25   TIME STEP   500
 --------------- --------------- --------------- --------------- ---------------
     0.14640E+06                                                                
 -------------------------------------------------------------------------------
 
 SOLVING FOR HEAD 
 INITIAL HNEW IS AN EXACT SOLUTION.

 NO OUTPUT CONTROL FOR STRESS PERIOD   25   TIME STEP  501

 -------------------------------------------------------------------------------
                             SWR1 OUTPUT PRINT TIMES
                        STRESS PERIOD   25   TIME STEP   501
 --------------- --------------- --------------- --------------- ---------------
     0.14652E+06                                                                
 -------------------------------------------------------------------------------
 
 SOLVING FOR HEAD 
 INITIAL HNEW IS AN EXACT SOLUTION.

 NO OUTPUT CONTROL FOR STRESS PERIOD   25   TIME STEP  502

 -------------------------------------------------------------------------------
                             SWR1 OUTPUT PRINT TIMES
                        STRESS PERIOD   25   TIME STEP   502
 --------------- --------------- --------------- --------------- ---------------
     0.14664E+06                                                                
 -------------------------------------------------------------------------------
 
 SOLVING FOR HEAD 
 INITIAL HNEW IS AN EXACT SOLUTION.

 NO OUTPUT CONTROL FOR STRESS PERIOD   25   TIME STEP  503

 -------------------------------------------------------------------------------
                             SWR1 OUTPUT PRINT TIMES
                        STRESS PERIOD   25   TIME STEP   503
 --------------- --------------- --------------- --------------- ---------------
     0.14676E+06                                                                
 -------------------------------------------------------------------------------
 
 SOLVING FOR HEAD 
 INITIAL HNEW IS AN EXACT SOLUTION.

 NO OUTPUT CONTROL FOR STRESS PERIOD   25   TIME STEP  504

 -------------------------------------------------------------------------------
                             SWR1 OUTPUT PRINT TIMES
                        STRESS PERIOD   25   TIME STEP   504
 --------------- --------------- --------------- --------------- ---------------
     0.14688E+06                                                                
 -------------------------------------------------------------------------------
 
 SOLVING FOR HEAD 
 INITIAL HNEW IS AN EXACT SOLUTION.

 NO OUTPUT CONTROL FOR STRESS PERIOD   25   TIME STEP  505

 -------------------------------------------------------------------------------
                             SWR1 OUTPUT PRINT TIMES
                        STRESS PERIOD   25   TIME STEP   505
 --------------- --------------- --------------- --------------- ---------------
     0.14700E+06                                                                
 -------------------------------------------------------------------------------
 
 SOLVING FOR HEAD 
 INITIAL HNEW IS AN EXACT SOLUTION.

 NO OUTPUT CONTROL FOR STRESS PERIOD   25   TIME STEP  506

 -------------------------------------------------------------------------------
                             SWR1 OUTPUT PRINT TIMES
                        STRESS PERIOD   25   TIME STEP   506
 --------------- --------------- --------------- --------------- ---------------
     0.14712E+06                                                                
 -------------------------------------------------------------------------------
 
 SOLVING FOR HEAD 
 INITIAL HNEW IS AN EXACT SOLUTION.

 NO OUTPUT CONTROL FOR STRESS PERIOD   25   TIME STEP  507

 -------------------------------------------------------------------------------
                             SWR1 OUTPUT PRINT TIMES
                        STRESS PERIOD   25   TIME STEP   507
 --------------- --------------- --------------- --------------- ---------------
     0.14724E+06                                                                
 -------------------------------------------------------------------------------
 
 SOLVING FOR HEAD 
 INITIAL HNEW IS AN EXACT SOLUTION.

 NO OUTPUT CONTROL FOR STRESS PERIOD   25   TIME STEP  508

 -------------------------------------------------------------------------------
                             SWR1 OUTPUT PRINT TIMES
                        STRESS PERIOD   25   TIME STEP   508
 --------------- --------------- --------------- --------------- ---------------
     0.14736E+06                                                                
 -------------------------------------------------------------------------------
 
 SOLVING FOR HEAD 
 INITIAL HNEW IS AN EXACT SOLUTION.

 NO OUTPUT CONTROL FOR STRESS PERIOD   25   TIME STEP  509

 -------------------------------------------------------------------------------
                             SWR1 OUTPUT PRINT TIMES
                        STRESS PERIOD   25   TIME STEP   509
 --------------- --------------- --------------- --------------- ---------------
     0.14748E+06                                                                
 -------------------------------------------------------------------------------
 
 SOLVING FOR HEAD 
 INITIAL HNEW IS AN EXACT SOLUTION.

 NO OUTPUT CONTROL FOR STRESS PERIOD   25   TIME STEP  510

 -------------------------------------------------------------------------------
                             SWR1 OUTPUT PRINT TIMES
                        STRESS PERIOD   25   TIME STEP   510
 --------------- --------------- --------------- --------------- ---------------
     0.14760E+06                                                                
 -------------------------------------------------------------------------------
 
 SOLVING FOR HEAD 
 INITIAL HNEW IS AN EXACT SOLUTION.

 NO OUTPUT CONTROL FOR STRESS PERIOD   25   TIME STEP  511

 -------------------------------------------------------------------------------
                             SWR1 OUTPUT PRINT TIMES
                        STRESS PERIOD   25   TIME STEP   511
 --------------- --------------- --------------- --------------- ---------------
     0.14772E+06                                                                
 -------------------------------------------------------------------------------
 
 SOLVING FOR HEAD 
 INITIAL HNEW IS AN EXACT SOLUTION.

 NO OUTPUT CONTROL FOR STRESS PERIOD   25   TIME STEP  512

 -------------------------------------------------------------------------------
                             SWR1 OUTPUT PRINT TIMES
                        STRESS PERIOD   25   TIME STEP   512
 --------------- --------------- --------------- --------------- ---------------
     0.14784E+06                                                                
 -------------------------------------------------------------------------------
 
 SOLVING FOR HEAD 
 INITIAL HNEW IS AN EXACT SOLUTION.

 NO OUTPUT CONTROL FOR STRESS PERIOD   25   TIME STEP  513

 -------------------------------------------------------------------------------
                             SWR1 OUTPUT PRINT TIMES
                        STRESS PERIOD   25   TIME STEP   513
 --------------- --------------- --------------- --------------- ---------------
     0.14796E+06                                                                
 -------------------------------------------------------------------------------
 
 SOLVING FOR HEAD 
 INITIAL HNEW IS AN EXACT SOLUTION.

 NO OUTPUT CONTROL FOR STRESS PERIOD   25   TIME STEP  514

 -------------------------------------------------------------------------------
                             SWR1 OUTPUT PRINT TIMES
                        STRESS PERIOD   25   TIME STEP   514
 --------------- --------------- --------------- --------------- ---------------
     0.14808E+06                                                                
 -------------------------------------------------------------------------------
 
 SOLVING FOR HEAD 
 INITIAL HNEW IS AN EXACT SOLUTION.

 NO OUTPUT CONTROL FOR STRESS PERIOD   25   TIME STEP  515

 -------------------------------------------------------------------------------
                             SWR1 OUTPUT PRINT TIMES
                        STRESS PERIOD   25   TIME STEP   515
 --------------- --------------- --------------- --------------- ---------------
     0.14820E+06                                                                
 -------------------------------------------------------------------------------
 
 SOLVING FOR HEAD 
 INITIAL HNEW IS AN EXACT SOLUTION.

 NO OUTPUT CONTROL FOR STRESS PERIOD   25   TIME STEP  516

 -------------------------------------------------------------------------------
                             SWR1 OUTPUT PRINT TIMES
                        STRESS PERIOD   25   TIME STEP   516
 --------------- --------------- --------------- --------------- ---------------
     0.14832E+06                                                                
 -------------------------------------------------------------------------------
 
 SOLVING FOR HEAD 
 INITIAL HNEW IS AN EXACT SOLUTION.

 NO OUTPUT CONTROL FOR STRESS PERIOD   25   TIME STEP  517

 -------------------------------------------------------------------------------
                             SWR1 OUTPUT PRINT TIMES
                        STRESS PERIOD   25   TIME STEP   517
 --------------- --------------- --------------- --------------- ---------------
     0.14844E+06                                                                
 -------------------------------------------------------------------------------
 
 SOLVING FOR HEAD 
 INITIAL HNEW IS AN EXACT SOLUTION.

 NO OUTPUT CONTROL FOR STRESS PERIOD   25   TIME STEP  518

 -------------------------------------------------------------------------------
                             SWR1 OUTPUT PRINT TIMES
                        STRESS PERIOD   25   TIME STEP   518
 --------------- --------------- --------------- --------------- ---------------
     0.14856E+06                                                                
 -------------------------------------------------------------------------------
 
 SOLVING FOR HEAD 
 INITIAL HNEW IS AN EXACT SOLUTION.

 NO OUTPUT CONTROL FOR STRESS PERIOD   25   TIME STEP  519

 -------------------------------------------------------------------------------
                             SWR1 OUTPUT PRINT TIMES
                        STRESS PERIOD   25   TIME STEP   519
 --------------- --------------- --------------- --------------- ---------------
     0.14868E+06                                                                
 -------------------------------------------------------------------------------
 
 SOLVING FOR HEAD 
 INITIAL HNEW IS AN EXACT SOLUTION.

 NO OUTPUT CONTROL FOR STRESS PERIOD   25   TIME STEP  520

 -------------------------------------------------------------------------------
                             SWR1 OUTPUT PRINT TIMES
                        STRESS PERIOD   25   TIME STEP   520
 --------------- --------------- --------------- --------------- ---------------
     0.14880E+06                                                                
 -------------------------------------------------------------------------------
 
 SOLVING FOR HEAD 
 INITIAL HNEW IS AN EXACT SOLUTION.

 NO OUTPUT CONTROL FOR STRESS PERIOD   25   TIME STEP  521

 -------------------------------------------------------------------------------
                             SWR1 OUTPUT PRINT TIMES
                        STRESS PERIOD   25   TIME STEP   521
 --------------- --------------- --------------- --------------- ---------------
     0.14892E+06                                                                
 -------------------------------------------------------------------------------
 
 SOLVING FOR HEAD 
 INITIAL HNEW IS AN EXACT SOLUTION.

 NO OUTPUT CONTROL FOR STRESS PERIOD   25   TIME STEP  522

 -------------------------------------------------------------------------------
                             SWR1 OUTPUT PRINT TIMES
                        STRESS PERIOD   25   TIME STEP   522
 --------------- --------------- --------------- --------------- ---------------
     0.14904E+06                                                                
 -------------------------------------------------------------------------------
 
 SOLVING FOR HEAD 
 INITIAL HNEW IS AN EXACT SOLUTION.

 NO OUTPUT CONTROL FOR STRESS PERIOD   25   TIME STEP  523

 -------------------------------------------------------------------------------
                             SWR1 OUTPUT PRINT TIMES
                        STRESS PERIOD   25   TIME STEP   523
 --------------- --------------- --------------- --------------- ---------------
     0.14916E+06                                                                
 -------------------------------------------------------------------------------
 
 SOLVING FOR HEAD 
 INITIAL HNEW IS AN EXACT SOLUTION.

 NO OUTPUT CONTROL FOR STRESS PERIOD   25   TIME STEP  524

 -------------------------------------------------------------------------------
                             SWR1 OUTPUT PRINT TIMES
                        STRESS PERIOD   25   TIME STEP   524
 --------------- --------------- --------------- --------------- ---------------
     0.14928E+06                                                                
 -------------------------------------------------------------------------------
 
 SOLVING FOR HEAD 
 INITIAL HNEW IS AN EXACT SOLUTION.

 NO OUTPUT CONTROL FOR STRESS PERIOD   25   TIME STEP  525

 -------------------------------------------------------------------------------
                             SWR1 OUTPUT PRINT TIMES
                        STRESS PERIOD   25   TIME STEP   525
 --------------- --------------- --------------- --------------- ---------------
     0.14940E+06                                                                
 -------------------------------------------------------------------------------
 
 SOLVING FOR HEAD 
 INITIAL HNEW IS AN EXACT SOLUTION.

 NO OUTPUT CONTROL FOR STRESS PERIOD   25   TIME STEP  526

 -------------------------------------------------------------------------------
                             SWR1 OUTPUT PRINT TIMES
                        STRESS PERIOD   25   TIME STEP   526
 --------------- --------------- --------------- --------------- ---------------
     0.14952E+06                                                                
 -------------------------------------------------------------------------------
 
 SOLVING FOR HEAD 
 INITIAL HNEW IS AN EXACT SOLUTION.

 NO OUTPUT CONTROL FOR STRESS PERIOD   25   TIME STEP  527

 -------------------------------------------------------------------------------
                             SWR1 OUTPUT PRINT TIMES
                        STRESS PERIOD   25   TIME STEP   527
 --------------- --------------- --------------- --------------- ---------------
     0.14964E+06                                                                
 -------------------------------------------------------------------------------
 
 SOLVING FOR HEAD 
 INITIAL HNEW IS AN EXACT SOLUTION.

 NO OUTPUT CONTROL FOR STRESS PERIOD   25   TIME STEP  528

 -------------------------------------------------------------------------------
                             SWR1 OUTPUT PRINT TIMES
                        STRESS PERIOD   25   TIME STEP   528
 --------------- --------------- --------------- --------------- ---------------
     0.14976E+06                                                                
 -------------------------------------------------------------------------------
 
 SOLVING FOR HEAD 
 INITIAL HNEW IS AN EXACT SOLUTION.

 NO OUTPUT CONTROL FOR STRESS PERIOD   25   TIME STEP  529

 -------------------------------------------------------------------------------
                             SWR1 OUTPUT PRINT TIMES
                        STRESS PERIOD   25   TIME STEP   529
 --------------- --------------- --------------- --------------- ---------------
     0.14988E+06                                                                
 -------------------------------------------------------------------------------
 
 SOLVING FOR HEAD 
 INITIAL HNEW IS AN EXACT SOLUTION.

 NO OUTPUT CONTROL FOR STRESS PERIOD   25   TIME STEP  530

 -------------------------------------------------------------------------------
                             SWR1 OUTPUT PRINT TIMES
                        STRESS PERIOD   25   TIME STEP   530
 --------------- --------------- --------------- --------------- ---------------
     0.15000E+06                                                                
 -------------------------------------------------------------------------------
 
 SOLVING FOR HEAD 
 INITIAL HNEW IS AN EXACT SOLUTION.

 NO OUTPUT CONTROL FOR STRESS PERIOD   25   TIME STEP  531

 -------------------------------------------------------------------------------
                             SWR1 OUTPUT PRINT TIMES
                        STRESS PERIOD   25   TIME STEP   531
 --------------- --------------- --------------- --------------- ---------------
     0.15012E+06                                                                
 -------------------------------------------------------------------------------
 
 SOLVING FOR HEAD 
 INITIAL HNEW IS AN EXACT SOLUTION.

 NO OUTPUT CONTROL FOR STRESS PERIOD   25   TIME STEP  532

 -------------------------------------------------------------------------------
                             SWR1 OUTPUT PRINT TIMES
                        STRESS PERIOD   25   TIME STEP   532
 --------------- --------------- --------------- --------------- ---------------
     0.15024E+06                                                                
 -------------------------------------------------------------------------------
 
 SOLVING FOR HEAD 
 INITIAL HNEW IS AN EXACT SOLUTION.

 NO OUTPUT CONTROL FOR STRESS PERIOD   25   TIME STEP  533

 -------------------------------------------------------------------------------
                             SWR1 OUTPUT PRINT TIMES
                        STRESS PERIOD   25   TIME STEP   533
 --------------- --------------- --------------- --------------- ---------------
     0.15036E+06                                                                
 -------------------------------------------------------------------------------
 
 SOLVING FOR HEAD 
 INITIAL HNEW IS AN EXACT SOLUTION.

 NO OUTPUT CONTROL FOR STRESS PERIOD   25   TIME STEP  534

 -------------------------------------------------------------------------------
                             SWR1 OUTPUT PRINT TIMES
                        STRESS PERIOD   25   TIME STEP   534
 --------------- --------------- --------------- --------------- ---------------
     0.15048E+06                                                                
 -------------------------------------------------------------------------------
 
 SOLVING FOR HEAD 
 INITIAL HNEW IS AN EXACT SOLUTION.

 NO OUTPUT CONTROL FOR STRESS PERIOD   25   TIME STEP  535

 -------------------------------------------------------------------------------
                             SWR1 OUTPUT PRINT TIMES
                        STRESS PERIOD   25   TIME STEP   535
 --------------- --------------- --------------- --------------- ---------------
     0.15060E+06                                                                
 -------------------------------------------------------------------------------
 
 SOLVING FOR HEAD 
 INITIAL HNEW IS AN EXACT SOLUTION.

 NO OUTPUT CONTROL FOR STRESS PERIOD   25   TIME STEP  536

 -------------------------------------------------------------------------------
                             SWR1 OUTPUT PRINT TIMES
                        STRESS PERIOD   25   TIME STEP   536
 --------------- --------------- --------------- --------------- ---------------
     0.15072E+06                                                                
 -------------------------------------------------------------------------------
 
 SOLVING FOR HEAD 
 INITIAL HNEW IS AN EXACT SOLUTION.

 NO OUTPUT CONTROL FOR STRESS PERIOD   25   TIME STEP  537

 -------------------------------------------------------------------------------
                             SWR1 OUTPUT PRINT TIMES
                        STRESS PERIOD   25   TIME STEP   537
 --------------- --------------- --------------- --------------- ---------------
     0.15084E+06                                                                
 -------------------------------------------------------------------------------
 
 SOLVING FOR HEAD 
 INITIAL HNEW IS AN EXACT SOLUTION.

 NO OUTPUT CONTROL FOR STRESS PERIOD   25   TIME STEP  538

 -------------------------------------------------------------------------------
                             SWR1 OUTPUT PRINT TIMES
                        STRESS PERIOD   25   TIME STEP   538
 --------------- --------------- --------------- --------------- ---------------
     0.15096E+06                                                                
 -------------------------------------------------------------------------------
 
 SOLVING FOR HEAD 
 INITIAL HNEW IS AN EXACT SOLUTION.

 NO OUTPUT CONTROL FOR STRESS PERIOD   25   TIME STEP  539

 -------------------------------------------------------------------------------
                             SWR1 OUTPUT PRINT TIMES
                        STRESS PERIOD   25   TIME STEP   539
 --------------- --------------- --------------- --------------- ---------------
     0.15108E+06                                                                
 -------------------------------------------------------------------------------
 
 SOLVING FOR HEAD 
 INITIAL HNEW IS AN EXACT SOLUTION.

 NO OUTPUT CONTROL FOR STRESS PERIOD   25   TIME STEP  540

 -------------------------------------------------------------------------------
                             SWR1 OUTPUT PRINT TIMES
                        STRESS PERIOD   25   TIME STEP   540
 --------------- --------------- --------------- --------------- ---------------
     0.15120E+06                                                                
 -------------------------------------------------------------------------------
 
 SOLVING FOR HEAD 
 INITIAL HNEW IS AN EXACT SOLUTION.

 NO OUTPUT CONTROL FOR STRESS PERIOD   25   TIME STEP  541

 -------------------------------------------------------------------------------
                             SWR1 OUTPUT PRINT TIMES
                        STRESS PERIOD   25   TIME STEP   541
 --------------- --------------- --------------- --------------- ---------------
     0.15132E+06                                                                
 -------------------------------------------------------------------------------
 
 SOLVING FOR HEAD 
 INITIAL HNEW IS AN EXACT SOLUTION.

 NO OUTPUT CONTROL FOR STRESS PERIOD   25   TIME STEP  542

 -------------------------------------------------------------------------------
                             SWR1 OUTPUT PRINT TIMES
                        STRESS PERIOD   25   TIME STEP   542
 --------------- --------------- --------------- --------------- ---------------
     0.15144E+06                                                                
 -------------------------------------------------------------------------------
 
 SOLVING FOR HEAD 
 INITIAL HNEW IS AN EXACT SOLUTION.

 NO OUTPUT CONTROL FOR STRESS PERIOD   25   TIME STEP  543

 -------------------------------------------------------------------------------
                             SWR1 OUTPUT PRINT TIMES
                        STRESS PERIOD   25   TIME STEP   543
 --------------- --------------- --------------- --------------- ---------------
     0.15156E+06                                                                
 -------------------------------------------------------------------------------
 
 SOLVING FOR HEAD 
 INITIAL HNEW IS AN EXACT SOLUTION.

 NO OUTPUT CONTROL FOR STRESS PERIOD   25   TIME STEP  544

 -------------------------------------------------------------------------------
                             SWR1 OUTPUT PRINT TIMES
                        STRESS PERIOD   25   TIME STEP   544
 --------------- --------------- --------------- --------------- ---------------
     0.15168E+06                                                                
 -------------------------------------------------------------------------------
 
 SOLVING FOR HEAD 
 INITIAL HNEW IS AN EXACT SOLUTION.

 NO OUTPUT CONTROL FOR STRESS PERIOD   25   TIME STEP  545

 -------------------------------------------------------------------------------
                             SWR1 OUTPUT PRINT TIMES
                        STRESS PERIOD   25   TIME STEP   545
 --------------- --------------- --------------- --------------- ---------------
     0.15180E+06                                                                
 -------------------------------------------------------------------------------
 
 SOLVING FOR HEAD 
 INITIAL HNEW IS AN EXACT SOLUTION.

 NO OUTPUT CONTROL FOR STRESS PERIOD   25   TIME STEP  546

 -------------------------------------------------------------------------------
                             SWR1 OUTPUT PRINT TIMES
                        STRESS PERIOD   25   TIME STEP   546
 --------------- --------------- --------------- --------------- ---------------
     0.15192E+06                                                                
 -------------------------------------------------------------------------------
 
 SOLVING FOR HEAD 
 INITIAL HNEW IS AN EXACT SOLUTION.

 NO OUTPUT CONTROL FOR STRESS PERIOD   25   TIME STEP  547

 -------------------------------------------------------------------------------
                             SWR1 OUTPUT PRINT TIMES
                        STRESS PERIOD   25   TIME STEP   547
 --------------- --------------- --------------- --------------- ---------------
     0.15204E+06                                                                
 -------------------------------------------------------------------------------
 
 SOLVING FOR HEAD 
 INITIAL HNEW IS AN EXACT SOLUTION.

 NO OUTPUT CONTROL FOR STRESS PERIOD   25   TIME STEP  548

 -------------------------------------------------------------------------------
                             SWR1 OUTPUT PRINT TIMES
                        STRESS PERIOD   25   TIME STEP   548
 --------------- --------------- --------------- --------------- ---------------
     0.15216E+06                                                                
 -------------------------------------------------------------------------------
 
 SOLVING FOR HEAD 
 INITIAL HNEW IS AN EXACT SOLUTION.

 NO OUTPUT CONTROL FOR STRESS PERIOD   25   TIME STEP  549

 -------------------------------------------------------------------------------
                             SWR1 OUTPUT PRINT TIMES
                        STRESS PERIOD   25   TIME STEP   549
 --------------- --------------- --------------- --------------- ---------------
     0.15228E+06                                                                
 -------------------------------------------------------------------------------
 
 SOLVING FOR HEAD 
 INITIAL HNEW IS AN EXACT SOLUTION.

 NO OUTPUT CONTROL FOR STRESS PERIOD   25   TIME STEP  550

 -------------------------------------------------------------------------------
                             SWR1 OUTPUT PRINT TIMES
                        STRESS PERIOD   25   TIME STEP   550
 --------------- --------------- --------------- --------------- ---------------
     0.15240E+06                                                                
 -------------------------------------------------------------------------------
 
 SOLVING FOR HEAD 
 INITIAL HNEW IS AN EXACT SOLUTION.

 NO OUTPUT CONTROL FOR STRESS PERIOD   25   TIME STEP  551

 -------------------------------------------------------------------------------
                             SWR1 OUTPUT PRINT TIMES
                        STRESS PERIOD   25   TIME STEP   551
 --------------- --------------- --------------- --------------- ---------------
     0.15252E+06                                                                
 -------------------------------------------------------------------------------
 
 SOLVING FOR HEAD 
 INITIAL HNEW IS AN EXACT SOLUTION.

 NO OUTPUT CONTROL FOR STRESS PERIOD   25   TIME STEP  552

 -------------------------------------------------------------------------------
                             SWR1 OUTPUT PRINT TIMES
                        STRESS PERIOD   25   TIME STEP   552
 --------------- --------------- --------------- --------------- ---------------
     0.15264E+06                                                                
 -------------------------------------------------------------------------------
 
 SOLVING FOR HEAD 
 INITIAL HNEW IS AN EXACT SOLUTION.

 NO OUTPUT CONTROL FOR STRESS PERIOD   25   TIME STEP  553

 -------------------------------------------------------------------------------
                             SWR1 OUTPUT PRINT TIMES
                        STRESS PERIOD   25   TIME STEP   553
 --------------- --------------- --------------- --------------- ---------------
     0.15276E+06                                                                
 -------------------------------------------------------------------------------
 
 SOLVING FOR HEAD 
 INITIAL HNEW IS AN EXACT SOLUTION.

 NO OUTPUT CONTROL FOR STRESS PERIOD   25   TIME STEP  554

 -------------------------------------------------------------------------------
                             SWR1 OUTPUT PRINT TIMES
                        STRESS PERIOD   25   TIME STEP   554
 --------------- --------------- --------------- --------------- ---------------
     0.15288E+06                                                                
 -------------------------------------------------------------------------------
 
 SOLVING FOR HEAD 
 INITIAL HNEW IS AN EXACT SOLUTION.

 NO OUTPUT CONTROL FOR STRESS PERIOD   25   TIME STEP  555

 -------------------------------------------------------------------------------
                             SWR1 OUTPUT PRINT TIMES
                        STRESS PERIOD   25   TIME STEP   555
 --------------- --------------- --------------- --------------- ---------------
     0.15300E+06                                                                
 -------------------------------------------------------------------------------
 
 SOLVING FOR HEAD 
 INITIAL HNEW IS AN EXACT SOLUTION.

 NO OUTPUT CONTROL FOR STRESS PERIOD   25   TIME STEP  556

 -------------------------------------------------------------------------------
                             SWR1 OUTPUT PRINT TIMES
                        STRESS PERIOD   25   TIME STEP   556
 --------------- --------------- --------------- --------------- ---------------
     0.15312E+06                                                                
 -------------------------------------------------------------------------------
 
 SOLVING FOR HEAD 
 INITIAL HNEW IS AN EXACT SOLUTION.

 NO OUTPUT CONTROL FOR STRESS PERIOD   25   TIME STEP  557

 -------------------------------------------------------------------------------
                             SWR1 OUTPUT PRINT TIMES
                        STRESS PERIOD   25   TIME STEP   557
 --------------- --------------- --------------- --------------- ---------------
     0.15324E+06                                                                
 -------------------------------------------------------------------------------
 
 SOLVING FOR HEAD 
 INITIAL HNEW IS AN EXACT SOLUTION.

 NO OUTPUT CONTROL FOR STRESS PERIOD   25   TIME STEP  558

 -------------------------------------------------------------------------------
                             SWR1 OUTPUT PRINT TIMES
                        STRESS PERIOD   25   TIME STEP   558
 --------------- --------------- --------------- --------------- ---------------
     0.15336E+06                                                                
 -------------------------------------------------------------------------------
 
 SOLVING FOR HEAD 
 INITIAL HNEW IS AN EXACT SOLUTION.

 NO OUTPUT CONTROL FOR STRESS PERIOD   25   TIME STEP  559

 -------------------------------------------------------------------------------
                             SWR1 OUTPUT PRINT TIMES
                        STRESS PERIOD   25   TIME STEP   559
 --------------- --------------- --------------- --------------- ---------------
     0.15348E+06                                                                
 -------------------------------------------------------------------------------
 
 SOLVING FOR HEAD 
 INITIAL HNEW IS AN EXACT SOLUTION.

 NO OUTPUT CONTROL FOR STRESS PERIOD   25   TIME STEP  560

 -------------------------------------------------------------------------------
                             SWR1 OUTPUT PRINT TIMES
                        STRESS PERIOD   25   TIME STEP   560
 --------------- --------------- --------------- --------------- ---------------
     0.15360E+06                                                                
 -------------------------------------------------------------------------------
 
 SOLVING FOR HEAD 
 INITIAL HNEW IS AN EXACT SOLUTION.

 NO OUTPUT CONTROL FOR STRESS PERIOD   25   TIME STEP  561

 -------------------------------------------------------------------------------
                             SWR1 OUTPUT PRINT TIMES
                        STRESS PERIOD   25   TIME STEP   561
 --------------- --------------- --------------- --------------- ---------------
     0.15372E+06                                                                
 -------------------------------------------------------------------------------
 
 SOLVING FOR HEAD 
 INITIAL HNEW IS AN EXACT SOLUTION.

 NO OUTPUT CONTROL FOR STRESS PERIOD   25   TIME STEP  562

 -------------------------------------------------------------------------------
                             SWR1 OUTPUT PRINT TIMES
                        STRESS PERIOD   25   TIME STEP   562
 --------------- --------------- --------------- --------------- ---------------
     0.15384E+06                                                                
 -------------------------------------------------------------------------------
 
 SOLVING FOR HEAD 
 INITIAL HNEW IS AN EXACT SOLUTION.

 NO OUTPUT CONTROL FOR STRESS PERIOD   25   TIME STEP  563

 -------------------------------------------------------------------------------
                             SWR1 OUTPUT PRINT TIMES
                        STRESS PERIOD   25   TIME STEP   563
 --------------- --------------- --------------- --------------- ---------------
     0.15396E+06                                                                
 -------------------------------------------------------------------------------
 
 SOLVING FOR HEAD 
 INITIAL HNEW IS AN EXACT SOLUTION.

 NO OUTPUT CONTROL FOR STRESS PERIOD   25   TIME STEP  564

 -------------------------------------------------------------------------------
                             SWR1 OUTPUT PRINT TIMES
                        STRESS PERIOD   25   TIME STEP   564
 --------------- --------------- --------------- --------------- ---------------
     0.15408E+06                                                                
 -------------------------------------------------------------------------------
 
 SOLVING FOR HEAD 
 INITIAL HNEW IS AN EXACT SOLUTION.

 NO OUTPUT CONTROL FOR STRESS PERIOD   25   TIME STEP  565

 -------------------------------------------------------------------------------
                             SWR1 OUTPUT PRINT TIMES
                        STRESS PERIOD   25   TIME STEP   565
 --------------- --------------- --------------- --------------- ---------------
     0.15420E+06                                                                
 -------------------------------------------------------------------------------
 
 SOLVING FOR HEAD 
 INITIAL HNEW IS AN EXACT SOLUTION.

 NO OUTPUT CONTROL FOR STRESS PERIOD   25   TIME STEP  566

 -------------------------------------------------------------------------------
                             SWR1 OUTPUT PRINT TIMES
                        STRESS PERIOD   25   TIME STEP   566
 --------------- --------------- --------------- --------------- ---------------
     0.15432E+06                                                                
 -------------------------------------------------------------------------------
 
 SOLVING FOR HEAD 
 INITIAL HNEW IS AN EXACT SOLUTION.

 NO OUTPUT CONTROL FOR STRESS PERIOD   25   TIME STEP  567

 -------------------------------------------------------------------------------
                             SWR1 OUTPUT PRINT TIMES
                        STRESS PERIOD   25   TIME STEP   567
 --------------- --------------- --------------- --------------- ---------------
     0.15444E+06                                                                
 -------------------------------------------------------------------------------
 
 SOLVING FOR HEAD 
 INITIAL HNEW IS AN EXACT SOLUTION.

 NO OUTPUT CONTROL FOR STRESS PERIOD   25   TIME STEP  568

 -------------------------------------------------------------------------------
                             SWR1 OUTPUT PRINT TIMES
                        STRESS PERIOD   25   TIME STEP   568
 --------------- --------------- --------------- --------------- ---------------
     0.15456E+06                                                                
 -------------------------------------------------------------------------------
 
 SOLVING FOR HEAD 
 INITIAL HNEW IS AN EXACT SOLUTION.

 NO OUTPUT CONTROL FOR STRESS PERIOD   25   TIME STEP  569

 -------------------------------------------------------------------------------
                             SWR1 OUTPUT PRINT TIMES
                        STRESS PERIOD   25   TIME STEP   569
 --------------- --------------- --------------- --------------- ---------------
     0.15468E+06                                                                
 -------------------------------------------------------------------------------
 
 SOLVING FOR HEAD 
 INITIAL HNEW IS AN EXACT SOLUTION.

 NO OUTPUT CONTROL FOR STRESS PERIOD   25   TIME STEP  570

 -------------------------------------------------------------------------------
                             SWR1 OUTPUT PRINT TIMES
                        STRESS PERIOD   25   TIME STEP   570
 --------------- --------------- --------------- --------------- ---------------
     0.15480E+06                                                                
 -------------------------------------------------------------------------------
 
 SOLVING FOR HEAD 
 INITIAL HNEW IS AN EXACT SOLUTION.

 NO OUTPUT CONTROL FOR STRESS PERIOD   25   TIME STEP  571

 -------------------------------------------------------------------------------
                             SWR1 OUTPUT PRINT TIMES
                        STRESS PERIOD   25   TIME STEP   571
 --------------- --------------- --------------- --------------- ---------------
     0.15492E+06                                                                
 -------------------------------------------------------------------------------
 
 SOLVING FOR HEAD 
 INITIAL HNEW IS AN EXACT SOLUTION.

 NO OUTPUT CONTROL FOR STRESS PERIOD   25   TIME STEP  572

 -------------------------------------------------------------------------------
                             SWR1 OUTPUT PRINT TIMES
                        STRESS PERIOD   25   TIME STEP   572
 --------------- --------------- --------------- --------------- ---------------
     0.15504E+06                                                                
 -------------------------------------------------------------------------------
 
 SOLVING FOR HEAD 
 INITIAL HNEW IS AN EXACT SOLUTION.

 NO OUTPUT CONTROL FOR STRESS PERIOD   25   TIME STEP  573

 -------------------------------------------------------------------------------
                             SWR1 OUTPUT PRINT TIMES
                        STRESS PERIOD   25   TIME STEP   573
 --------------- --------------- --------------- --------------- ---------------
     0.15516E+06                                                                
 -------------------------------------------------------------------------------
 
 SOLVING FOR HEAD 
 INITIAL HNEW IS AN EXACT SOLUTION.

 NO OUTPUT CONTROL FOR STRESS PERIOD   25   TIME STEP  574

 -------------------------------------------------------------------------------
                             SWR1 OUTPUT PRINT TIMES
                        STRESS PERIOD   25   TIME STEP   574
 --------------- --------------- --------------- --------------- ---------------
     0.15528E+06                                                                
 -------------------------------------------------------------------------------
 
 SOLVING FOR HEAD 
 INITIAL HNEW IS AN EXACT SOLUTION.

 NO OUTPUT CONTROL FOR STRESS PERIOD   25   TIME STEP  575

 -------------------------------------------------------------------------------
                             SWR1 OUTPUT PRINT TIMES
                        STRESS PERIOD   25   TIME STEP   575
 --------------- --------------- --------------- --------------- ---------------
     0.15540E+06                                                                
 -------------------------------------------------------------------------------
 
 SOLVING FOR HEAD 
 INITIAL HNEW IS AN EXACT SOLUTION.

 NO OUTPUT CONTROL FOR STRESS PERIOD   25   TIME STEP  576

 -------------------------------------------------------------------------------
                             SWR1 OUTPUT PRINT TIMES
                        STRESS PERIOD   25   TIME STEP   576
 --------------- --------------- --------------- --------------- ---------------
     0.15552E+06                                                                
 -------------------------------------------------------------------------------
 
 SOLVING FOR HEAD 
 INITIAL HNEW IS AN EXACT SOLUTION.

 NO OUTPUT CONTROL FOR STRESS PERIOD   25   TIME STEP  577

 -------------------------------------------------------------------------------
                             SWR1 OUTPUT PRINT TIMES
                        STRESS PERIOD   25   TIME STEP   577
 --------------- --------------- --------------- --------------- ---------------
     0.15564E+06                                                                
 -------------------------------------------------------------------------------
 
 SOLVING FOR HEAD 
 INITIAL HNEW IS AN EXACT SOLUTION.

 NO OUTPUT CONTROL FOR STRESS PERIOD   25   TIME STEP  578

 -------------------------------------------------------------------------------
                             SWR1 OUTPUT PRINT TIMES
                        STRESS PERIOD   25   TIME STEP   578
 --------------- --------------- --------------- --------------- ---------------
     0.15576E+06                                                                
 -------------------------------------------------------------------------------
 
 SOLVING FOR HEAD 
 INITIAL HNEW IS AN EXACT SOLUTION.

 NO OUTPUT CONTROL FOR STRESS PERIOD   25   TIME STEP  579

 -------------------------------------------------------------------------------
                             SWR1 OUTPUT PRINT TIMES
                        STRESS PERIOD   25   TIME STEP   579
 --------------- --------------- --------------- --------------- ---------------
     0.15588E+06                                                                
 -------------------------------------------------------------------------------
 
 SOLVING FOR HEAD 
 INITIAL HNEW IS AN EXACT SOLUTION.

 NO OUTPUT CONTROL FOR STRESS PERIOD   25   TIME STEP  580

 -------------------------------------------------------------------------------
                             SWR1 OUTPUT PRINT TIMES
                        STRESS PERIOD   25   TIME STEP   580
 --------------- --------------- --------------- --------------- ---------------
     0.15600E+06                                                                
 -------------------------------------------------------------------------------
 
 SOLVING FOR HEAD 
 INITIAL HNEW IS AN EXACT SOLUTION.

 NO OUTPUT CONTROL FOR STRESS PERIOD   25   TIME STEP  581

 -------------------------------------------------------------------------------
                             SWR1 OUTPUT PRINT TIMES
                        STRESS PERIOD   25   TIME STEP   581
 --------------- --------------- --------------- --------------- ---------------
     0.15612E+06                                                                
 -------------------------------------------------------------------------------
 
 SOLVING FOR HEAD 
 INITIAL HNEW IS AN EXACT SOLUTION.

 NO OUTPUT CONTROL FOR STRESS PERIOD   25   TIME STEP  582

 -------------------------------------------------------------------------------
                             SWR1 OUTPUT PRINT TIMES
                        STRESS PERIOD   25   TIME STEP   582
 --------------- --------------- --------------- --------------- ---------------
     0.15624E+06                                                                
 -------------------------------------------------------------------------------
 
 SOLVING FOR HEAD 
 INITIAL HNEW IS AN EXACT SOLUTION.

 NO OUTPUT CONTROL FOR STRESS PERIOD   25   TIME STEP  583

 -------------------------------------------------------------------------------
                             SWR1 OUTPUT PRINT TIMES
                        STRESS PERIOD   25   TIME STEP   583
 --------------- --------------- --------------- --------------- ---------------
     0.15636E+06                                                                
 -------------------------------------------------------------------------------
 
 SOLVING FOR HEAD 
 INITIAL HNEW IS AN EXACT SOLUTION.

 NO OUTPUT CONTROL FOR STRESS PERIOD   25   TIME STEP  584

 -------------------------------------------------------------------------------
                             SWR1 OUTPUT PRINT TIMES
                        STRESS PERIOD   25   TIME STEP   584
 --------------- --------------- --------------- --------------- ---------------
     0.15648E+06                                                                
 -------------------------------------------------------------------------------
 
 SOLVING FOR HEAD 
 INITIAL HNEW IS AN EXACT SOLUTION.

 NO OUTPUT CONTROL FOR STRESS PERIOD   25   TIME STEP  585

 -------------------------------------------------------------------------------
                             SWR1 OUTPUT PRINT TIMES
                        STRESS PERIOD   25   TIME STEP   585
 --------------- --------------- --------------- --------------- ---------------
     0.15660E+06                                                                
 -------------------------------------------------------------------------------
 
 SOLVING FOR HEAD 
 INITIAL HNEW IS AN EXACT SOLUTION.

 NO OUTPUT CONTROL FOR STRESS PERIOD   25   TIME STEP  586

 -------------------------------------------------------------------------------
                             SWR1 OUTPUT PRINT TIMES
                        STRESS PERIOD   25   TIME STEP   586
 --------------- --------------- --------------- --------------- ---------------
     0.15672E+06                                                                
 -------------------------------------------------------------------------------
 
 SOLVING FOR HEAD 
 INITIAL HNEW IS AN EXACT SOLUTION.

 NO OUTPUT CONTROL FOR STRESS PERIOD   25   TIME STEP  587

 -------------------------------------------------------------------------------
                             SWR1 OUTPUT PRINT TIMES
                        STRESS PERIOD   25   TIME STEP   587
 --------------- --------------- --------------- --------------- ---------------
     0.15684E+06                                                                
 -------------------------------------------------------------------------------
 
 SOLVING FOR HEAD 
 INITIAL HNEW IS AN EXACT SOLUTION.

 NO OUTPUT CONTROL FOR STRESS PERIOD   25   TIME STEP  588

 -------------------------------------------------------------------------------
                             SWR1 OUTPUT PRINT TIMES
                        STRESS PERIOD   25   TIME STEP   588
 --------------- --------------- --------------- --------------- ---------------
     0.15696E+06                                                                
 -------------------------------------------------------------------------------
 
 SOLVING FOR HEAD 
 INITIAL HNEW IS AN EXACT SOLUTION.

 NO OUTPUT CONTROL FOR STRESS PERIOD   25   TIME STEP  589

 -------------------------------------------------------------------------------
                             SWR1 OUTPUT PRINT TIMES
                        STRESS PERIOD   25   TIME STEP   589
 --------------- --------------- --------------- --------------- ---------------
     0.15708E+06                                                                
 -------------------------------------------------------------------------------
 
 SOLVING FOR HEAD 
 INITIAL HNEW IS AN EXACT SOLUTION.

 NO OUTPUT CONTROL FOR STRESS PERIOD   25   TIME STEP  590

 -------------------------------------------------------------------------------
                             SWR1 OUTPUT PRINT TIMES
                        STRESS PERIOD   25   TIME STEP   590
 --------------- --------------- --------------- --------------- ---------------
     0.15720E+06                                                                
 -------------------------------------------------------------------------------
 
 SOLVING FOR HEAD 
 INITIAL HNEW IS AN EXACT SOLUTION.

 NO OUTPUT CONTROL FOR STRESS PERIOD   25   TIME STEP  591

 -------------------------------------------------------------------------------
                             SWR1 OUTPUT PRINT TIMES
                        STRESS PERIOD   25   TIME STEP   591
 --------------- --------------- --------------- --------------- ---------------
     0.15732E+06                                                                
 -------------------------------------------------------------------------------
 
 SOLVING FOR HEAD 
 INITIAL HNEW IS AN EXACT SOLUTION.

 NO OUTPUT CONTROL FOR STRESS PERIOD   25   TIME STEP  592

 -------------------------------------------------------------------------------
                             SWR1 OUTPUT PRINT TIMES
                        STRESS PERIOD   25   TIME STEP   592
 --------------- --------------- --------------- --------------- ---------------
     0.15744E+06                                                                
 -------------------------------------------------------------------------------
 
 SOLVING FOR HEAD 
 INITIAL HNEW IS AN EXACT SOLUTION.

 NO OUTPUT CONTROL FOR STRESS PERIOD   25   TIME STEP  593

 -------------------------------------------------------------------------------
                             SWR1 OUTPUT PRINT TIMES
                        STRESS PERIOD   25   TIME STEP   593
 --------------- --------------- --------------- --------------- ---------------
     0.15756E+06                                                                
 -------------------------------------------------------------------------------
 
 SOLVING FOR HEAD 
 INITIAL HNEW IS AN EXACT SOLUTION.

 NO OUTPUT CONTROL FOR STRESS PERIOD   25   TIME STEP  594

 -------------------------------------------------------------------------------
                             SWR1 OUTPUT PRINT TIMES
                        STRESS PERIOD   25   TIME STEP   594
 --------------- --------------- --------------- --------------- ---------------
     0.15768E+06                                                                
 -------------------------------------------------------------------------------
 
 SOLVING FOR HEAD 
 INITIAL HNEW IS AN EXACT SOLUTION.

 NO OUTPUT CONTROL FOR STRESS PERIOD   25   TIME STEP  595

 -------------------------------------------------------------------------------
                             SWR1 OUTPUT PRINT TIMES
                        STRESS PERIOD   25   TIME STEP   595
 --------------- --------------- --------------- --------------- ---------------
     0.15780E+06                                                                
 -------------------------------------------------------------------------------
 
 SOLVING FOR HEAD 
 INITIAL HNEW IS AN EXACT SOLUTION.

 NO OUTPUT CONTROL FOR STRESS PERIOD   25   TIME STEP  596

 -------------------------------------------------------------------------------
                             SWR1 OUTPUT PRINT TIMES
                        STRESS PERIOD   25   TIME STEP   596
 --------------- --------------- --------------- --------------- ---------------
     0.15792E+06                                                                
 -------------------------------------------------------------------------------
 
 SOLVING FOR HEAD 
 INITIAL HNEW IS AN EXACT SOLUTION.

 NO OUTPUT CONTROL FOR STRESS PERIOD   25   TIME STEP  597

 -------------------------------------------------------------------------------
                             SWR1 OUTPUT PRINT TIMES
                        STRESS PERIOD   25   TIME STEP   597
 --------------- --------------- --------------- --------------- ---------------
     0.15804E+06                                                                
 -------------------------------------------------------------------------------
 
 SOLVING FOR HEAD 
 INITIAL HNEW IS AN EXACT SOLUTION.

 NO OUTPUT CONTROL FOR STRESS PERIOD   25   TIME STEP  598

 -------------------------------------------------------------------------------
                             SWR1 OUTPUT PRINT TIMES
                        STRESS PERIOD   25   TIME STEP   598
 --------------- --------------- --------------- --------------- ---------------
     0.15816E+06                                                                
 -------------------------------------------------------------------------------
 
 SOLVING FOR HEAD 
 INITIAL HNEW IS AN EXACT SOLUTION.

 NO OUTPUT CONTROL FOR STRESS PERIOD   25   TIME STEP  599

 -------------------------------------------------------------------------------
                             SWR1 OUTPUT PRINT TIMES
                        STRESS PERIOD   25   TIME STEP   599
 --------------- --------------- --------------- --------------- ---------------
     0.15828E+06                                                                
 -------------------------------------------------------------------------------
 
 SOLVING FOR HEAD 
 INITIAL HNEW IS AN EXACT SOLUTION.

 NO OUTPUT CONTROL FOR STRESS PERIOD   25   TIME STEP  600

 -------------------------------------------------------------------------------
                             SWR1 OUTPUT PRINT TIMES
                        STRESS PERIOD   25   TIME STEP   600
 --------------- --------------- --------------- --------------- ---------------
     0.15840E+06                                                                
 -------------------------------------------------------------------------------
 
 SOLVING FOR HEAD 
 INITIAL HNEW IS AN EXACT SOLUTION.

 NO OUTPUT CONTROL FOR STRESS PERIOD   25   TIME STEP  601

 -------------------------------------------------------------------------------
                             SWR1 OUTPUT PRINT TIMES
                        STRESS PERIOD   25   TIME STEP   601
 --------------- --------------- --------------- --------------- ---------------
     0.15852E+06                                                                
 -------------------------------------------------------------------------------
 
 SOLVING FOR HEAD 
 INITIAL HNEW IS AN EXACT SOLUTION.

 NO OUTPUT CONTROL FOR STRESS PERIOD   25   TIME STEP  602

 -------------------------------------------------------------------------------
                             SWR1 OUTPUT PRINT TIMES
                        STRESS PERIOD   25   TIME STEP   602
 --------------- --------------- --------------- --------------- ---------------
     0.15864E+06                                                                
 -------------------------------------------------------------------------------
 
 SOLVING FOR HEAD 
 INITIAL HNEW IS AN EXACT SOLUTION.

 NO OUTPUT CONTROL FOR STRESS PERIOD   25   TIME STEP  603

 -------------------------------------------------------------------------------
                             SWR1 OUTPUT PRINT TIMES
                        STRESS PERIOD   25   TIME STEP   603
 --------------- --------------- --------------- --------------- ---------------
     0.15876E+06                                                                
 -------------------------------------------------------------------------------
 
 SOLVING FOR HEAD 
 INITIAL HNEW IS AN EXACT SOLUTION.

 NO OUTPUT CONTROL FOR STRESS PERIOD   25   TIME STEP  604

 -------------------------------------------------------------------------------
                             SWR1 OUTPUT PRINT TIMES
                        STRESS PERIOD   25   TIME STEP   604
 --------------- --------------- --------------- --------------- ---------------
     0.15888E+06                                                                
 -------------------------------------------------------------------------------
 
 SOLVING FOR HEAD 
 INITIAL HNEW IS AN EXACT SOLUTION.

 NO OUTPUT CONTROL FOR STRESS PERIOD   25   TIME STEP  605

 -------------------------------------------------------------------------------
                             SWR1 OUTPUT PRINT TIMES
                        STRESS PERIOD   25   TIME STEP   605
 --------------- --------------- --------------- --------------- ---------------
     0.15900E+06                                                                
 -------------------------------------------------------------------------------
 
 SOLVING FOR HEAD 
 INITIAL HNEW IS AN EXACT SOLUTION.

 NO OUTPUT CONTROL FOR STRESS PERIOD   25   TIME STEP  606

 -------------------------------------------------------------------------------
                             SWR1 OUTPUT PRINT TIMES
                        STRESS PERIOD   25   TIME STEP   606
 --------------- --------------- --------------- --------------- ---------------
     0.15912E+06                                                                
 -------------------------------------------------------------------------------
 
 SOLVING FOR HEAD 
 INITIAL HNEW IS AN EXACT SOLUTION.

 NO OUTPUT CONTROL FOR STRESS PERIOD   25   TIME STEP  607

 -------------------------------------------------------------------------------
                             SWR1 OUTPUT PRINT TIMES
                        STRESS PERIOD   25   TIME STEP   607
 --------------- --------------- --------------- --------------- ---------------
     0.15924E+06                                                                
 -------------------------------------------------------------------------------
 
 SOLVING FOR HEAD 
 INITIAL HNEW IS AN EXACT SOLUTION.

 NO OUTPUT CONTROL FOR STRESS PERIOD   25   TIME STEP  608

 -------------------------------------------------------------------------------
                             SWR1 OUTPUT PRINT TIMES
                        STRESS PERIOD   25   TIME STEP   608
 --------------- --------------- --------------- --------------- ---------------
     0.15936E+06                                                                
 -------------------------------------------------------------------------------
 
 SOLVING FOR HEAD 
 INITIAL HNEW IS AN EXACT SOLUTION.

 NO OUTPUT CONTROL FOR STRESS PERIOD   25   TIME STEP  609

 -------------------------------------------------------------------------------
                             SWR1 OUTPUT PRINT TIMES
                        STRESS PERIOD   25   TIME STEP   609
 --------------- --------------- --------------- --------------- ---------------
     0.15948E+06                                                                
 -------------------------------------------------------------------------------
 
 SOLVING FOR HEAD 
 INITIAL HNEW IS AN EXACT SOLUTION.

 NO OUTPUT CONTROL FOR STRESS PERIOD   25   TIME STEP  610

 -------------------------------------------------------------------------------
                             SWR1 OUTPUT PRINT TIMES
                        STRESS PERIOD   25   TIME STEP   610
 --------------- --------------- --------------- --------------- ---------------
     0.15960E+06                                                                
 -------------------------------------------------------------------------------
 
 SOLVING FOR HEAD 
 INITIAL HNEW IS AN EXACT SOLUTION.

 NO OUTPUT CONTROL FOR STRESS PERIOD   25   TIME STEP  611

 -------------------------------------------------------------------------------
                             SWR1 OUTPUT PRINT TIMES
                        STRESS PERIOD   25   TIME STEP   611
 --------------- --------------- --------------- --------------- ---------------
     0.15972E+06                                                                
 -------------------------------------------------------------------------------
 
 SOLVING FOR HEAD 
 INITIAL HNEW IS AN EXACT SOLUTION.

 NO OUTPUT CONTROL FOR STRESS PERIOD   25   TIME STEP  612

 -------------------------------------------------------------------------------
                             SWR1 OUTPUT PRINT TIMES
                        STRESS PERIOD   25   TIME STEP   612
 --------------- --------------- --------------- --------------- ---------------
     0.15984E+06                                                                
 -------------------------------------------------------------------------------
 
 SOLVING FOR HEAD 
 INITIAL HNEW IS AN EXACT SOLUTION.

 NO OUTPUT CONTROL FOR STRESS PERIOD   25   TIME STEP  613

 -------------------------------------------------------------------------------
                             SWR1 OUTPUT PRINT TIMES
                        STRESS PERIOD   25   TIME STEP   613
 --------------- --------------- --------------- --------------- ---------------
     0.15996E+06                                                                
 -------------------------------------------------------------------------------
 
 SOLVING FOR HEAD 
 INITIAL HNEW IS AN EXACT SOLUTION.

 NO OUTPUT CONTROL FOR STRESS PERIOD   25   TIME STEP  614

 -------------------------------------------------------------------------------
                             SWR1 OUTPUT PRINT TIMES
                        STRESS PERIOD   25   TIME STEP   614
 --------------- --------------- --------------- --------------- ---------------
     0.16008E+06                                                                
 -------------------------------------------------------------------------------
 
 SOLVING FOR HEAD 
 INITIAL HNEW IS AN EXACT SOLUTION.

 NO OUTPUT CONTROL FOR STRESS PERIOD   25   TIME STEP  615

 -------------------------------------------------------------------------------
                             SWR1 OUTPUT PRINT TIMES
                        STRESS PERIOD   25   TIME STEP   615
 --------------- --------------- --------------- --------------- ---------------
     0.16020E+06                                                                
 -------------------------------------------------------------------------------
 
 SOLVING FOR HEAD 
 INITIAL HNEW IS AN EXACT SOLUTION.

 NO OUTPUT CONTROL FOR STRESS PERIOD   25   TIME STEP  616

 -------------------------------------------------------------------------------
                             SWR1 OUTPUT PRINT TIMES
                        STRESS PERIOD   25   TIME STEP   616
 --------------- --------------- --------------- --------------- ---------------
     0.16032E+06                                                                
 -------------------------------------------------------------------------------
 
 SOLVING FOR HEAD 
 INITIAL HNEW IS AN EXACT SOLUTION.

 NO OUTPUT CONTROL FOR STRESS PERIOD   25   TIME STEP  617

 -------------------------------------------------------------------------------
                             SWR1 OUTPUT PRINT TIMES
                        STRESS PERIOD   25   TIME STEP   617
 --------------- --------------- --------------- --------------- ---------------
     0.16044E+06                                                                
 -------------------------------------------------------------------------------
 
 SOLVING FOR HEAD 
 INITIAL HNEW IS AN EXACT SOLUTION.

 NO OUTPUT CONTROL FOR STRESS PERIOD   25   TIME STEP  618

 -------------------------------------------------------------------------------
                             SWR1 OUTPUT PRINT TIMES
                        STRESS PERIOD   25   TIME STEP   618
 --------------- --------------- --------------- --------------- ---------------
     0.16056E+06                                                                
 -------------------------------------------------------------------------------
 
 SOLVING FOR HEAD 
 INITIAL HNEW IS AN EXACT SOLUTION.

 NO OUTPUT CONTROL FOR STRESS PERIOD   25   TIME STEP  619

 -------------------------------------------------------------------------------
                             SWR1 OUTPUT PRINT TIMES
                        STRESS PERIOD   25   TIME STEP   619
 --------------- --------------- --------------- --------------- ---------------
     0.16068E+06                                                                
 -------------------------------------------------------------------------------
 
 SOLVING FOR HEAD 
 INITIAL HNEW IS AN EXACT SOLUTION.

 NO OUTPUT CONTROL FOR STRESS PERIOD   25   TIME STEP  620

 -------------------------------------------------------------------------------
                             SWR1 OUTPUT PRINT TIMES
                        STRESS PERIOD   25   TIME STEP   620
 --------------- --------------- --------------- --------------- ---------------
     0.16080E+06                                                                
 -------------------------------------------------------------------------------
 
 SOLVING FOR HEAD 
 INITIAL HNEW IS AN EXACT SOLUTION.

 NO OUTPUT CONTROL FOR STRESS PERIOD   25   TIME STEP  621

 -------------------------------------------------------------------------------
                             SWR1 OUTPUT PRINT TIMES
                        STRESS PERIOD   25   TIME STEP   621
 --------------- --------------- --------------- --------------- ---------------
     0.16092E+06                                                                
 -------------------------------------------------------------------------------
 
 SOLVING FOR HEAD 
 INITIAL HNEW IS AN EXACT SOLUTION.

 NO OUTPUT CONTROL FOR STRESS PERIOD   25   TIME STEP  622

 -------------------------------------------------------------------------------
                             SWR1 OUTPUT PRINT TIMES
                        STRESS PERIOD   25   TIME STEP   622
 --------------- --------------- --------------- --------------- ---------------
     0.16104E+06                                                                
 -------------------------------------------------------------------------------
 
 SOLVING FOR HEAD 
 INITIAL HNEW IS AN EXACT SOLUTION.

 NO OUTPUT CONTROL FOR STRESS PERIOD   25   TIME STEP  623

 -------------------------------------------------------------------------------
                             SWR1 OUTPUT PRINT TIMES
                        STRESS PERIOD   25   TIME STEP   623
 --------------- --------------- --------------- --------------- ---------------
     0.16116E+06                                                                
 -------------------------------------------------------------------------------
 
 SOLVING FOR HEAD 
 INITIAL HNEW IS AN EXACT SOLUTION.

 NO OUTPUT CONTROL FOR STRESS PERIOD   25   TIME STEP  624

 -------------------------------------------------------------------------------
                             SWR1 OUTPUT PRINT TIMES
                        STRESS PERIOD   25   TIME STEP   624
 --------------- --------------- --------------- --------------- ---------------
     0.16128E+06                                                                
 -------------------------------------------------------------------------------
 
 SOLVING FOR HEAD 
 INITIAL HNEW IS AN EXACT SOLUTION.

 NO OUTPUT CONTROL FOR STRESS PERIOD   25   TIME STEP  625

 -------------------------------------------------------------------------------
                             SWR1 OUTPUT PRINT TIMES
                        STRESS PERIOD   25   TIME STEP   625
 --------------- --------------- --------------- --------------- ---------------
     0.16140E+06                                                                
 -------------------------------------------------------------------------------
 
 SOLVING FOR HEAD 
 INITIAL HNEW IS AN EXACT SOLUTION.

 NO OUTPUT CONTROL FOR STRESS PERIOD   25   TIME STEP  626

 -------------------------------------------------------------------------------
                             SWR1 OUTPUT PRINT TIMES
                        STRESS PERIOD   25   TIME STEP   626
 --------------- --------------- --------------- --------------- ---------------
     0.16152E+06                                                                
 -------------------------------------------------------------------------------
 
 SOLVING FOR HEAD 
 INITIAL HNEW IS AN EXACT SOLUTION.

 NO OUTPUT CONTROL FOR STRESS PERIOD   25   TIME STEP  627

 -------------------------------------------------------------------------------
                             SWR1 OUTPUT PRINT TIMES
                        STRESS PERIOD   25   TIME STEP   627
 --------------- --------------- --------------- --------------- ---------------
     0.16164E+06                                                                
 -------------------------------------------------------------------------------
 
 SOLVING FOR HEAD 
 INITIAL HNEW IS AN EXACT SOLUTION.

 NO OUTPUT CONTROL FOR STRESS PERIOD   25   TIME STEP  628

 -------------------------------------------------------------------------------
                             SWR1 OUTPUT PRINT TIMES
                        STRESS PERIOD   25   TIME STEP   628
 --------------- --------------- --------------- --------------- ---------------
     0.16176E+06                                                                
 -------------------------------------------------------------------------------
 
 SOLVING FOR HEAD 
 INITIAL HNEW IS AN EXACT SOLUTION.

 NO OUTPUT CONTROL FOR STRESS PERIOD   25   TIME STEP  629

 -------------------------------------------------------------------------------
                             SWR1 OUTPUT PRINT TIMES
                        STRESS PERIOD   25   TIME STEP   629
 --------------- --------------- --------------- --------------- ---------------
     0.16188E+06                                                                
 -------------------------------------------------------------------------------
 
 SOLVING FOR HEAD 
 INITIAL HNEW IS AN EXACT SOLUTION.

 NO OUTPUT CONTROL FOR STRESS PERIOD   25   TIME STEP  630

 -------------------------------------------------------------------------------
                             SWR1 OUTPUT PRINT TIMES
                        STRESS PERIOD   25   TIME STEP   630
 --------------- --------------- --------------- --------------- ---------------
     0.16200E+06                                                                
 -------------------------------------------------------------------------------
 
 SOLVING FOR HEAD 
 INITIAL HNEW IS AN EXACT SOLUTION.

 NO OUTPUT CONTROL FOR STRESS PERIOD   25   TIME STEP  631

 -------------------------------------------------------------------------------
                             SWR1 OUTPUT PRINT TIMES
                        STRESS PERIOD   25   TIME STEP   631
 --------------- --------------- --------------- --------------- ---------------
     0.16212E+06                                                                
 -------------------------------------------------------------------------------
 
 SOLVING FOR HEAD 
 INITIAL HNEW IS AN EXACT SOLUTION.

 NO OUTPUT CONTROL FOR STRESS PERIOD   25   TIME STEP  632

 -------------------------------------------------------------------------------
                             SWR1 OUTPUT PRINT TIMES
                        STRESS PERIOD   25   TIME STEP   632
 --------------- --------------- --------------- --------------- ---------------
     0.16224E+06                                                                
 -------------------------------------------------------------------------------
 
 SOLVING FOR HEAD 
 INITIAL HNEW IS AN EXACT SOLUTION.

 NO OUTPUT CONTROL FOR STRESS PERIOD   25   TIME STEP  633

 -------------------------------------------------------------------------------
                             SWR1 OUTPUT PRINT TIMES
                        STRESS PERIOD   25   TIME STEP   633
 --------------- --------------- --------------- --------------- ---------------
     0.16236E+06                                                                
 -------------------------------------------------------------------------------
 
 SOLVING FOR HEAD 
 INITIAL HNEW IS AN EXACT SOLUTION.

 NO OUTPUT CONTROL FOR STRESS PERIOD   25   TIME STEP  634

 -------------------------------------------------------------------------------
                             SWR1 OUTPUT PRINT TIMES
                        STRESS PERIOD   25   TIME STEP   634
 --------------- --------------- --------------- --------------- ---------------
     0.16248E+06                                                                
 -------------------------------------------------------------------------------
 
 SOLVING FOR HEAD 
 INITIAL HNEW IS AN EXACT SOLUTION.

 NO OUTPUT CONTROL FOR STRESS PERIOD   25   TIME STEP  635

 -------------------------------------------------------------------------------
                             SWR1 OUTPUT PRINT TIMES
                        STRESS PERIOD   25   TIME STEP   635
 --------------- --------------- --------------- --------------- ---------------
     0.16260E+06                                                                
 -------------------------------------------------------------------------------
 
 SOLVING FOR HEAD 
 INITIAL HNEW IS AN EXACT SOLUTION.

 NO OUTPUT CONTROL FOR STRESS PERIOD   25   TIME STEP  636

 -------------------------------------------------------------------------------
                             SWR1 OUTPUT PRINT TIMES
                        STRESS PERIOD   25   TIME STEP   636
 --------------- --------------- --------------- --------------- ---------------
     0.16272E+06                                                                
 -------------------------------------------------------------------------------
 
 SOLVING FOR HEAD 
 INITIAL HNEW IS AN EXACT SOLUTION.

 NO OUTPUT CONTROL FOR STRESS PERIOD   25   TIME STEP  637

 -------------------------------------------------------------------------------
                             SWR1 OUTPUT PRINT TIMES
                        STRESS PERIOD   25   TIME STEP   637
 --------------- --------------- --------------- --------------- ---------------
     0.16284E+06                                                                
 -------------------------------------------------------------------------------
 
 SOLVING FOR HEAD 
 INITIAL HNEW IS AN EXACT SOLUTION.

 NO OUTPUT CONTROL FOR STRESS PERIOD   25   TIME STEP  638

 -------------------------------------------------------------------------------
                             SWR1 OUTPUT PRINT TIMES
                        STRESS PERIOD   25   TIME STEP   638
 --------------- --------------- --------------- --------------- ---------------
     0.16296E+06                                                                
 -------------------------------------------------------------------------------
 
 SOLVING FOR HEAD 
 INITIAL HNEW IS AN EXACT SOLUTION.

 NO OUTPUT CONTROL FOR STRESS PERIOD   25   TIME STEP  639

 -------------------------------------------------------------------------------
                             SWR1 OUTPUT PRINT TIMES
                        STRESS PERIOD   25   TIME STEP   639
 --------------- --------------- --------------- --------------- ---------------
     0.16308E+06                                                                
 -------------------------------------------------------------------------------
 
 SOLVING FOR HEAD 
 INITIAL HNEW IS AN EXACT SOLUTION.

 NO OUTPUT CONTROL FOR STRESS PERIOD   25   TIME STEP  640

 -------------------------------------------------------------------------------
                             SWR1 OUTPUT PRINT TIMES
                        STRESS PERIOD   25   TIME STEP   640
 --------------- --------------- --------------- --------------- ---------------
     0.16320E+06                                                                
 -------------------------------------------------------------------------------
 
 SOLVING FOR HEAD 
 INITIAL HNEW IS AN EXACT SOLUTION.

 NO OUTPUT CONTROL FOR STRESS PERIOD   25   TIME STEP  641

 -------------------------------------------------------------------------------
                             SWR1 OUTPUT PRINT TIMES
                        STRESS PERIOD   25   TIME STEP   641
 --------------- --------------- --------------- --------------- ---------------
     0.16332E+06                                                                
 -------------------------------------------------------------------------------
 
 SOLVING FOR HEAD 
 INITIAL HNEW IS AN EXACT SOLUTION.

 NO OUTPUT CONTROL FOR STRESS PERIOD   25   TIME STEP  642

 -------------------------------------------------------------------------------
                             SWR1 OUTPUT PRINT TIMES
                        STRESS PERIOD   25   TIME STEP   642
 --------------- --------------- --------------- --------------- ---------------
     0.16344E+06                                                                
 -------------------------------------------------------------------------------
 
 SOLVING FOR HEAD 
 INITIAL HNEW IS AN EXACT SOLUTION.

 NO OUTPUT CONTROL FOR STRESS PERIOD   25   TIME STEP  643

 -------------------------------------------------------------------------------
                             SWR1 OUTPUT PRINT TIMES
                        STRESS PERIOD   25   TIME STEP   643
 --------------- --------------- --------------- --------------- ---------------
     0.16356E+06                                                                
 -------------------------------------------------------------------------------
 
 SOLVING FOR HEAD 
 INITIAL HNEW IS AN EXACT SOLUTION.

 NO OUTPUT CONTROL FOR STRESS PERIOD   25   TIME STEP  644

 -------------------------------------------------------------------------------
                             SWR1 OUTPUT PRINT TIMES
                        STRESS PERIOD   25   TIME STEP   644
 --------------- --------------- --------------- --------------- ---------------
     0.16368E+06                                                                
 -------------------------------------------------------------------------------
 
 SOLVING FOR HEAD 
 INITIAL HNEW IS AN EXACT SOLUTION.

 NO OUTPUT CONTROL FOR STRESS PERIOD   25   TIME STEP  645

 -------------------------------------------------------------------------------
                             SWR1 OUTPUT PRINT TIMES
                        STRESS PERIOD   25   TIME STEP   645
 --------------- --------------- --------------- --------------- ---------------
     0.16380E+06                                                                
 -------------------------------------------------------------------------------
 
 SOLVING FOR HEAD 
 INITIAL HNEW IS AN EXACT SOLUTION.

 NO OUTPUT CONTROL FOR STRESS PERIOD   25   TIME STEP  646

 -------------------------------------------------------------------------------
                             SWR1 OUTPUT PRINT TIMES
                        STRESS PERIOD   25   TIME STEP   646
 --------------- --------------- --------------- --------------- ---------------
     0.16392E+06                                                                
 -------------------------------------------------------------------------------
 
 SOLVING FOR HEAD 
 INITIAL HNEW IS AN EXACT SOLUTION.

 NO OUTPUT CONTROL FOR STRESS PERIOD   25   TIME STEP  647

 -------------------------------------------------------------------------------
                             SWR1 OUTPUT PRINT TIMES
                        STRESS PERIOD   25   TIME STEP   647
 --------------- --------------- --------------- --------------- ---------------
     0.16404E+06                                                                
 -------------------------------------------------------------------------------
 
 SOLVING FOR HEAD 
 INITIAL HNEW IS AN EXACT SOLUTION.

 NO OUTPUT CONTROL FOR STRESS PERIOD   25   TIME STEP  648

 -------------------------------------------------------------------------------
                             SWR1 OUTPUT PRINT TIMES
                        STRESS PERIOD   25   TIME STEP   648
 --------------- --------------- --------------- --------------- ---------------
     0.16416E+06                                                                
 -------------------------------------------------------------------------------
 
 SOLVING FOR HEAD 
 INITIAL HNEW IS AN EXACT SOLUTION.

 NO OUTPUT CONTROL FOR STRESS PERIOD   25   TIME STEP  649

 -------------------------------------------------------------------------------
                             SWR1 OUTPUT PRINT TIMES
                        STRESS PERIOD   25   TIME STEP   649
 --------------- --------------- --------------- --------------- ---------------
     0.16428E+06                                                                
 -------------------------------------------------------------------------------
 
 SOLVING FOR HEAD 
 INITIAL HNEW IS AN EXACT SOLUTION.

 NO OUTPUT CONTROL FOR STRESS PERIOD   25   TIME STEP  650

 -------------------------------------------------------------------------------
                             SWR1 OUTPUT PRINT TIMES
                        STRESS PERIOD   25   TIME STEP   650
 --------------- --------------- --------------- --------------- ---------------
     0.16440E+06                                                                
 -------------------------------------------------------------------------------
 
 SOLVING FOR HEAD 
 INITIAL HNEW IS AN EXACT SOLUTION.

 NO OUTPUT CONTROL FOR STRESS PERIOD   25   TIME STEP  651

 -------------------------------------------------------------------------------
                             SWR1 OUTPUT PRINT TIMES
                        STRESS PERIOD   25   TIME STEP   651
 --------------- --------------- --------------- --------------- ---------------
     0.16452E+06                                                                
 -------------------------------------------------------------------------------
 
 SOLVING FOR HEAD 
 INITIAL HNEW IS AN EXACT SOLUTION.

 NO OUTPUT CONTROL FOR STRESS PERIOD   25   TIME STEP  652

 -------------------------------------------------------------------------------
                             SWR1 OUTPUT PRINT TIMES
                        STRESS PERIOD   25   TIME STEP   652
 --------------- --------------- --------------- --------------- ---------------
     0.16464E+06                                                                
 -------------------------------------------------------------------------------
 
 SOLVING FOR HEAD 
 INITIAL HNEW IS AN EXACT SOLUTION.

 NO OUTPUT CONTROL FOR STRESS PERIOD   25   TIME STEP  653

 -------------------------------------------------------------------------------
                             SWR1 OUTPUT PRINT TIMES
                        STRESS PERIOD   25   TIME STEP   653
 --------------- --------------- --------------- --------------- ---------------
     0.16476E+06                                                                
 -------------------------------------------------------------------------------
 
 SOLVING FOR HEAD 
 INITIAL HNEW IS AN EXACT SOLUTION.

 NO OUTPUT CONTROL FOR STRESS PERIOD   25   TIME STEP  654

 -------------------------------------------------------------------------------
                             SWR1 OUTPUT PRINT TIMES
                        STRESS PERIOD   25   TIME STEP   654
 --------------- --------------- --------------- --------------- ---------------
     0.16488E+06                                                                
 -------------------------------------------------------------------------------
 
 SOLVING FOR HEAD 
 INITIAL HNEW IS AN EXACT SOLUTION.

 NO OUTPUT CONTROL FOR STRESS PERIOD   25   TIME STEP  655

 -------------------------------------------------------------------------------
                             SWR1 OUTPUT PRINT TIMES
                        STRESS PERIOD   25   TIME STEP   655
 --------------- --------------- --------------- --------------- ---------------
     0.16500E+06                                                                
 -------------------------------------------------------------------------------
 
 SOLVING FOR HEAD 
 INITIAL HNEW IS AN EXACT SOLUTION.

 NO OUTPUT CONTROL FOR STRESS PERIOD   25   TIME STEP  656

 -------------------------------------------------------------------------------
                             SWR1 OUTPUT PRINT TIMES
                        STRESS PERIOD   25   TIME STEP   656
 --------------- --------------- --------------- --------------- ---------------
     0.16512E+06                                                                
 -------------------------------------------------------------------------------
 
 SOLVING FOR HEAD 
 INITIAL HNEW IS AN EXACT SOLUTION.

 NO OUTPUT CONTROL FOR STRESS PERIOD   25   TIME STEP  657

 -------------------------------------------------------------------------------
                             SWR1 OUTPUT PRINT TIMES
                        STRESS PERIOD   25   TIME STEP   657
 --------------- --------------- --------------- --------------- ---------------
     0.16524E+06                                                                
 -------------------------------------------------------------------------------
 
 SOLVING FOR HEAD 
 INITIAL HNEW IS AN EXACT SOLUTION.

 NO OUTPUT CONTROL FOR STRESS PERIOD   25   TIME STEP  658

 -------------------------------------------------------------------------------
                             SWR1 OUTPUT PRINT TIMES
                        STRESS PERIOD   25   TIME STEP   658
 --------------- --------------- --------------- --------------- ---------------
     0.16536E+06                                                                
 -------------------------------------------------------------------------------
 
 SOLVING FOR HEAD 
 INITIAL HNEW IS AN EXACT SOLUTION.

 NO OUTPUT CONTROL FOR STRESS PERIOD   25   TIME STEP  659

 -------------------------------------------------------------------------------
                             SWR1 OUTPUT PRINT TIMES
                        STRESS PERIOD   25   TIME STEP   659
 --------------- --------------- --------------- --------------- ---------------
     0.16548E+06                                                                
 -------------------------------------------------------------------------------
 
 SOLVING FOR HEAD 
 INITIAL HNEW IS AN EXACT SOLUTION.

 NO OUTPUT CONTROL FOR STRESS PERIOD   25   TIME STEP  660

 -------------------------------------------------------------------------------
                             SWR1 OUTPUT PRINT TIMES
                        STRESS PERIOD   25   TIME STEP   660
 --------------- --------------- --------------- --------------- ---------------
     0.16560E+06                                                                
 -------------------------------------------------------------------------------
 
 SOLVING FOR HEAD 
 INITIAL HNEW IS AN EXACT SOLUTION.

 NO OUTPUT CONTROL FOR STRESS PERIOD   25   TIME STEP  661

 -------------------------------------------------------------------------------
                             SWR1 OUTPUT PRINT TIMES
                        STRESS PERIOD   25   TIME STEP   661
 --------------- --------------- --------------- --------------- ---------------
     0.16572E+06                                                                
 -------------------------------------------------------------------------------
 
 SOLVING FOR HEAD 
 INITIAL HNEW IS AN EXACT SOLUTION.

 NO OUTPUT CONTROL FOR STRESS PERIOD   25   TIME STEP  662

 -------------------------------------------------------------------------------
                             SWR1 OUTPUT PRINT TIMES
                        STRESS PERIOD   25   TIME STEP   662
 --------------- --------------- --------------- --------------- ---------------
     0.16584E+06                                                                
 -------------------------------------------------------------------------------
 
 SOLVING FOR HEAD 
 INITIAL HNEW IS AN EXACT SOLUTION.

 NO OUTPUT CONTROL FOR STRESS PERIOD   25   TIME STEP  663

 -------------------------------------------------------------------------------
                             SWR1 OUTPUT PRINT TIMES
                        STRESS PERIOD   25   TIME STEP   663
 --------------- --------------- --------------- --------------- ---------------
     0.16596E+06                                                                
 -------------------------------------------------------------------------------
 
 SOLVING FOR HEAD 
 INITIAL HNEW IS AN EXACT SOLUTION.

 NO OUTPUT CONTROL FOR STRESS PERIOD   25   TIME STEP  664

 -------------------------------------------------------------------------------
                             SWR1 OUTPUT PRINT TIMES
                        STRESS PERIOD   25   TIME STEP   664
 --------------- --------------- --------------- --------------- ---------------
     0.16608E+06                                                                
 -------------------------------------------------------------------------------
 
 SOLVING FOR HEAD 
 INITIAL HNEW IS AN EXACT SOLUTION.

 NO OUTPUT CONTROL FOR STRESS PERIOD   25   TIME STEP  665

 -------------------------------------------------------------------------------
                             SWR1 OUTPUT PRINT TIMES
                        STRESS PERIOD   25   TIME STEP   665
 --------------- --------------- --------------- --------------- ---------------
     0.16620E+06                                                                
 -------------------------------------------------------------------------------
 
 SOLVING FOR HEAD 
 INITIAL HNEW IS AN EXACT SOLUTION.

 NO OUTPUT CONTROL FOR STRESS PERIOD   25   TIME STEP  666

 -------------------------------------------------------------------------------
                             SWR1 OUTPUT PRINT TIMES
                        STRESS PERIOD   25   TIME STEP   666
 --------------- --------------- --------------- --------------- ---------------
     0.16632E+06                                                                
 -------------------------------------------------------------------------------
 
 SOLVING FOR HEAD 
 INITIAL HNEW IS AN EXACT SOLUTION.

 NO OUTPUT CONTROL FOR STRESS PERIOD   25   TIME STEP  667

 -------------------------------------------------------------------------------
                             SWR1 OUTPUT PRINT TIMES
                        STRESS PERIOD   25   TIME STEP   667
 --------------- --------------- --------------- --------------- ---------------
     0.16644E+06                                                                
 -------------------------------------------------------------------------------
 
 SOLVING FOR HEAD 
 INITIAL HNEW IS AN EXACT SOLUTION.

 NO OUTPUT CONTROL FOR STRESS PERIOD   25   TIME STEP  668

 -------------------------------------------------------------------------------
                             SWR1 OUTPUT PRINT TIMES
                        STRESS PERIOD   25   TIME STEP   668
 --------------- --------------- --------------- --------------- ---------------
     0.16656E+06                                                                
 -------------------------------------------------------------------------------
 
 SOLVING FOR HEAD 
 INITIAL HNEW IS AN EXACT SOLUTION.

 NO OUTPUT CONTROL FOR STRESS PERIOD   25   TIME STEP  669

 -------------------------------------------------------------------------------
                             SWR1 OUTPUT PRINT TIMES
                        STRESS PERIOD   25   TIME STEP   669
 --------------- --------------- --------------- --------------- ---------------
     0.16668E+06                                                                
 -------------------------------------------------------------------------------
 
 SOLVING FOR HEAD 
 INITIAL HNEW IS AN EXACT SOLUTION.

 NO OUTPUT CONTROL FOR STRESS PERIOD   25   TIME STEP  670

 -------------------------------------------------------------------------------
                             SWR1 OUTPUT PRINT TIMES
                        STRESS PERIOD   25   TIME STEP   670
 --------------- --------------- --------------- --------------- ---------------
     0.16680E+06                                                                
 -------------------------------------------------------------------------------
 
 SOLVING FOR HEAD 
 INITIAL HNEW IS AN EXACT SOLUTION.

 NO OUTPUT CONTROL FOR STRESS PERIOD   25   TIME STEP  671

 -------------------------------------------------------------------------------
                             SWR1 OUTPUT PRINT TIMES
                        STRESS PERIOD   25   TIME STEP   671
 --------------- --------------- --------------- --------------- ---------------
     0.16692E+06                                                                
 -------------------------------------------------------------------------------
 
 SOLVING FOR HEAD 
 INITIAL HNEW IS AN EXACT SOLUTION.

 NO OUTPUT CONTROL FOR STRESS PERIOD   25   TIME STEP  672

 -------------------------------------------------------------------------------
                             SWR1 OUTPUT PRINT TIMES
                        STRESS PERIOD   25   TIME STEP   672
 --------------- --------------- --------------- --------------- ---------------
     0.16704E+06                                                                
 -------------------------------------------------------------------------------
 
 SOLVING FOR HEAD 
 INITIAL HNEW IS AN EXACT SOLUTION.

 NO OUTPUT CONTROL FOR STRESS PERIOD   25   TIME STEP  673

 -------------------------------------------------------------------------------
                             SWR1 OUTPUT PRINT TIMES
                        STRESS PERIOD   25   TIME STEP   673
 --------------- --------------- --------------- --------------- ---------------
     0.16716E+06                                                                
 -------------------------------------------------------------------------------
 
 SOLVING FOR HEAD 
 INITIAL HNEW IS AN EXACT SOLUTION.

 NO OUTPUT CONTROL FOR STRESS PERIOD   25   TIME STEP  674

 -------------------------------------------------------------------------------
                             SWR1 OUTPUT PRINT TIMES
                        STRESS PERIOD   25   TIME STEP   674
 --------------- --------------- --------------- --------------- ---------------
     0.16728E+06                                                                
 -------------------------------------------------------------------------------
 
 SOLVING FOR HEAD 
 INITIAL HNEW IS AN EXACT SOLUTION.

 NO OUTPUT CONTROL FOR STRESS PERIOD   25   TIME STEP  675

 -------------------------------------------------------------------------------
                             SWR1 OUTPUT PRINT TIMES
                        STRESS PERIOD   25   TIME STEP   675
 --------------- --------------- --------------- --------------- ---------------
     0.16740E+06                                                                
 -------------------------------------------------------------------------------
 
 SOLVING FOR HEAD 
 INITIAL HNEW IS AN EXACT SOLUTION.

 NO OUTPUT CONTROL FOR STRESS PERIOD   25   TIME STEP  676

 -------------------------------------------------------------------------------
                             SWR1 OUTPUT PRINT TIMES
                        STRESS PERIOD   25   TIME STEP   676
 --------------- --------------- --------------- --------------- ---------------
     0.16752E+06                                                                
 -------------------------------------------------------------------------------
 
 SOLVING FOR HEAD 
 INITIAL HNEW IS AN EXACT SOLUTION.

 NO OUTPUT CONTROL FOR STRESS PERIOD   25   TIME STEP  677

 -------------------------------------------------------------------------------
                             SWR1 OUTPUT PRINT TIMES
                        STRESS PERIOD   25   TIME STEP   677
 --------------- --------------- --------------- --------------- ---------------
     0.16764E+06                                                                
 -------------------------------------------------------------------------------
 
 SOLVING FOR HEAD 
 INITIAL HNEW IS AN EXACT SOLUTION.

 NO OUTPUT CONTROL FOR STRESS PERIOD   25   TIME STEP  678

 -------------------------------------------------------------------------------
                             SWR1 OUTPUT PRINT TIMES
                        STRESS PERIOD   25   TIME STEP   678
 --------------- --------------- --------------- --------------- ---------------
     0.16776E+06                                                                
 -------------------------------------------------------------------------------
 
 SOLVING FOR HEAD 
 INITIAL HNEW IS AN EXACT SOLUTION.

 NO OUTPUT CONTROL FOR STRESS PERIOD   25   TIME STEP  679

 -------------------------------------------------------------------------------
                             SWR1 OUTPUT PRINT TIMES
                        STRESS PERIOD   25   TIME STEP   679
 --------------- --------------- --------------- --------------- ---------------
     0.16788E+06                                                                
 -------------------------------------------------------------------------------
 
 SOLVING FOR HEAD 
 INITIAL HNEW IS AN EXACT SOLUTION.

 NO OUTPUT CONTROL FOR STRESS PERIOD   25   TIME STEP  680

 -------------------------------------------------------------------------------
                             SWR1 OUTPUT PRINT TIMES
                        STRESS PERIOD   25   TIME STEP   680
 --------------- --------------- --------------- --------------- ---------------
     0.16800E+06                                                                
 -------------------------------------------------------------------------------
 
 SOLVING FOR HEAD 
 INITIAL HNEW IS AN EXACT SOLUTION.

 NO OUTPUT CONTROL FOR STRESS PERIOD   25   TIME STEP  681

 -------------------------------------------------------------------------------
                             SWR1 OUTPUT PRINT TIMES
                        STRESS PERIOD   25   TIME STEP   681
 --------------- --------------- --------------- --------------- ---------------
     0.16812E+06                                                                
 -------------------------------------------------------------------------------
 
 SOLVING FOR HEAD 
 INITIAL HNEW IS AN EXACT SOLUTION.

 NO OUTPUT CONTROL FOR STRESS PERIOD   25   TIME STEP  682

 -------------------------------------------------------------------------------
                             SWR1 OUTPUT PRINT TIMES
                        STRESS PERIOD   25   TIME STEP   682
 --------------- --------------- --------------- --------------- ---------------
     0.16824E+06                                                                
 -------------------------------------------------------------------------------
 
 SOLVING FOR HEAD 
 INITIAL HNEW IS AN EXACT SOLUTION.

 NO OUTPUT CONTROL FOR STRESS PERIOD   25   TIME STEP  683

 -------------------------------------------------------------------------------
                             SWR1 OUTPUT PRINT TIMES
                        STRESS PERIOD   25   TIME STEP   683
 --------------- --------------- --------------- --------------- ---------------
     0.16836E+06                                                                
 -------------------------------------------------------------------------------
 
 SOLVING FOR HEAD 
 INITIAL HNEW IS AN EXACT SOLUTION.

 NO OUTPUT CONTROL FOR STRESS PERIOD   25   TIME STEP  684

 -------------------------------------------------------------------------------
                             SWR1 OUTPUT PRINT TIMES
                        STRESS PERIOD   25   TIME STEP   684
 --------------- --------------- --------------- --------------- ---------------
     0.16848E+06                                                                
 -------------------------------------------------------------------------------
 
 SOLVING FOR HEAD 
 INITIAL HNEW IS AN EXACT SOLUTION.

 NO OUTPUT CONTROL FOR STRESS PERIOD   25   TIME STEP  685

 -------------------------------------------------------------------------------
                             SWR1 OUTPUT PRINT TIMES
                        STRESS PERIOD   25   TIME STEP   685
 --------------- --------------- --------------- --------------- ---------------
     0.16860E+06                                                                
 -------------------------------------------------------------------------------
 
 SOLVING FOR HEAD 
 INITIAL HNEW IS AN EXACT SOLUTION.

 NO OUTPUT CONTROL FOR STRESS PERIOD   25   TIME STEP  686

 -------------------------------------------------------------------------------
                             SWR1 OUTPUT PRINT TIMES
                        STRESS PERIOD   25   TIME STEP   686
 --------------- --------------- --------------- --------------- ---------------
     0.16872E+06                                                                
 -------------------------------------------------------------------------------
 
 SOLVING FOR HEAD 
 INITIAL HNEW IS AN EXACT SOLUTION.

 NO OUTPUT CONTROL FOR STRESS PERIOD   25   TIME STEP  687

 -------------------------------------------------------------------------------
                             SWR1 OUTPUT PRINT TIMES
                        STRESS PERIOD   25   TIME STEP   687
 --------------- --------------- --------------- --------------- ---------------
     0.16884E+06                                                                
 -------------------------------------------------------------------------------
 
 SOLVING FOR HEAD 
 INITIAL HNEW IS AN EXACT SOLUTION.

 NO OUTPUT CONTROL FOR STRESS PERIOD   25   TIME STEP  688

 -------------------------------------------------------------------------------
                             SWR1 OUTPUT PRINT TIMES
                        STRESS PERIOD   25   TIME STEP   688
 --------------- --------------- --------------- --------------- ---------------
     0.16896E+06                                                                
 -------------------------------------------------------------------------------
 
 SOLVING FOR HEAD 
 INITIAL HNEW IS AN EXACT SOLUTION.

 NO OUTPUT CONTROL FOR STRESS PERIOD   25   TIME STEP  689

 -------------------------------------------------------------------------------
                             SWR1 OUTPUT PRINT TIMES
                        STRESS PERIOD   25   TIME STEP   689
 --------------- --------------- --------------- --------------- ---------------
     0.16908E+06                                                                
 -------------------------------------------------------------------------------
 
 SOLVING FOR HEAD 
 INITIAL HNEW IS AN EXACT SOLUTION.

 NO OUTPUT CONTROL FOR STRESS PERIOD   25   TIME STEP  690

 -------------------------------------------------------------------------------
                             SWR1 OUTPUT PRINT TIMES
                        STRESS PERIOD   25   TIME STEP   690
 --------------- --------------- --------------- --------------- ---------------
     0.16920E+06                                                                
 -------------------------------------------------------------------------------
 
 SOLVING FOR HEAD 
 INITIAL HNEW IS AN EXACT SOLUTION.

 NO OUTPUT CONTROL FOR STRESS PERIOD   25   TIME STEP  691

 -------------------------------------------------------------------------------
                             SWR1 OUTPUT PRINT TIMES
                        STRESS PERIOD   25   TIME STEP   691
 --------------- --------------- --------------- --------------- ---------------
     0.16932E+06                                                                
 -------------------------------------------------------------------------------
 
 SOLVING FOR HEAD 
 INITIAL HNEW IS AN EXACT SOLUTION.

 NO OUTPUT CONTROL FOR STRESS PERIOD   25   TIME STEP  692

 -------------------------------------------------------------------------------
                             SWR1 OUTPUT PRINT TIMES
                        STRESS PERIOD   25   TIME STEP   692
 --------------- --------------- --------------- --------------- ---------------
     0.16944E+06                                                                
 -------------------------------------------------------------------------------
 
 SOLVING FOR HEAD 
 INITIAL HNEW IS AN EXACT SOLUTION.

 NO OUTPUT CONTROL FOR STRESS PERIOD   25   TIME STEP  693

 -------------------------------------------------------------------------------
                             SWR1 OUTPUT PRINT TIMES
                        STRESS PERIOD   25   TIME STEP   693
 --------------- --------------- --------------- --------------- ---------------
     0.16956E+06                                                                
 -------------------------------------------------------------------------------
 
 SOLVING FOR HEAD 
 INITIAL HNEW IS AN EXACT SOLUTION.

 NO OUTPUT CONTROL FOR STRESS PERIOD   25   TIME STEP  694

 -------------------------------------------------------------------------------
                             SWR1 OUTPUT PRINT TIMES
                        STRESS PERIOD   25   TIME STEP   694
 --------------- --------------- --------------- --------------- ---------------
     0.16968E+06                                                                
 -------------------------------------------------------------------------------
 
 SOLVING FOR HEAD 
 INITIAL HNEW IS AN EXACT SOLUTION.

 NO OUTPUT CONTROL FOR STRESS PERIOD   25   TIME STEP  695

 -------------------------------------------------------------------------------
                             SWR1 OUTPUT PRINT TIMES
                        STRESS PERIOD   25   TIME STEP   695
 --------------- --------------- --------------- --------------- ---------------
     0.16980E+06                                                                
 -------------------------------------------------------------------------------
 
 SOLVING FOR HEAD 
 INITIAL HNEW IS AN EXACT SOLUTION.

 NO OUTPUT CONTROL FOR STRESS PERIOD   25   TIME STEP  696

 -------------------------------------------------------------------------------
                             SWR1 OUTPUT PRINT TIMES
                        STRESS PERIOD   25   TIME STEP   696
 --------------- --------------- --------------- --------------- ---------------
     0.16992E+06                                                                
 -------------------------------------------------------------------------------
 
 SOLVING FOR HEAD 
 INITIAL HNEW IS AN EXACT SOLUTION.

 NO OUTPUT CONTROL FOR STRESS PERIOD   25   TIME STEP  697

 -------------------------------------------------------------------------------
                             SWR1 OUTPUT PRINT TIMES
                        STRESS PERIOD   25   TIME STEP   697
 --------------- --------------- --------------- --------------- ---------------
     0.17004E+06                                                                
 -------------------------------------------------------------------------------
 
 SOLVING FOR HEAD 
 INITIAL HNEW IS AN EXACT SOLUTION.

 NO OUTPUT CONTROL FOR STRESS PERIOD   25   TIME STEP  698

 -------------------------------------------------------------------------------
                             SWR1 OUTPUT PRINT TIMES
                        STRESS PERIOD   25   TIME STEP   698
 --------------- --------------- --------------- --------------- ---------------
     0.17016E+06                                                                
 -------------------------------------------------------------------------------
 
 SOLVING FOR HEAD 
 INITIAL HNEW IS AN EXACT SOLUTION.

 NO OUTPUT CONTROL FOR STRESS PERIOD   25   TIME STEP  699

 -------------------------------------------------------------------------------
                             SWR1 OUTPUT PRINT TIMES
                        STRESS PERIOD   25   TIME STEP   699
 --------------- --------------- --------------- --------------- ---------------
     0.17028E+06                                                                
 -------------------------------------------------------------------------------
 
 SOLVING FOR HEAD 
 INITIAL HNEW IS AN EXACT SOLUTION.

 NO OUTPUT CONTROL FOR STRESS PERIOD   25   TIME STEP  700

 -------------------------------------------------------------------------------
                             SWR1 OUTPUT PRINT TIMES
                        STRESS PERIOD   25   TIME STEP   700
 --------------- --------------- --------------- --------------- ---------------
     0.17040E+06                                                                
 -------------------------------------------------------------------------------
 
 SOLVING FOR HEAD 
 INITIAL HNEW IS AN EXACT SOLUTION.

 NO OUTPUT CONTROL FOR STRESS PERIOD   25   TIME STEP  701

 -------------------------------------------------------------------------------
                             SWR1 OUTPUT PRINT TIMES
                        STRESS PERIOD   25   TIME STEP   701
 --------------- --------------- --------------- --------------- ---------------
     0.17052E+06                                                                
 -------------------------------------------------------------------------------
 
 SOLVING FOR HEAD 
 INITIAL HNEW IS AN EXACT SOLUTION.

 NO OUTPUT CONTROL FOR STRESS PERIOD   25   TIME STEP  702

 -------------------------------------------------------------------------------
                             SWR1 OUTPUT PRINT TIMES
                        STRESS PERIOD   25   TIME STEP   702
 --------------- --------------- --------------- --------------- ---------------
     0.17064E+06                                                                
 -------------------------------------------------------------------------------
 
 SOLVING FOR HEAD 
 INITIAL HNEW IS AN EXACT SOLUTION.

 NO OUTPUT CONTROL FOR STRESS PERIOD   25   TIME STEP  703

 -------------------------------------------------------------------------------
                             SWR1 OUTPUT PRINT TIMES
                        STRESS PERIOD   25   TIME STEP   703
 --------------- --------------- --------------- --------------- ---------------
     0.17076E+06                                                                
 -------------------------------------------------------------------------------
 
 SOLVING FOR HEAD 
 INITIAL HNEW IS AN EXACT SOLUTION.

 NO OUTPUT CONTROL FOR STRESS PERIOD   25   TIME STEP  704

 -------------------------------------------------------------------------------
                             SWR1 OUTPUT PRINT TIMES
                        STRESS PERIOD   25   TIME STEP   704
 --------------- --------------- --------------- --------------- ---------------
     0.17088E+06                                                                
 -------------------------------------------------------------------------------
 
 SOLVING FOR HEAD 
 INITIAL HNEW IS AN EXACT SOLUTION.

 NO OUTPUT CONTROL FOR STRESS PERIOD   25   TIME STEP  705

 -------------------------------------------------------------------------------
                             SWR1 OUTPUT PRINT TIMES
                        STRESS PERIOD   25   TIME STEP   705
 --------------- --------------- --------------- --------------- ---------------
     0.17100E+06                                                                
 -------------------------------------------------------------------------------
 
 SOLVING FOR HEAD 
 INITIAL HNEW IS AN EXACT SOLUTION.

 NO OUTPUT CONTROL FOR STRESS PERIOD   25   TIME STEP  706

 -------------------------------------------------------------------------------
                             SWR1 OUTPUT PRINT TIMES
                        STRESS PERIOD   25   TIME STEP   706
 --------------- --------------- --------------- --------------- ---------------
     0.17112E+06                                                                
 -------------------------------------------------------------------------------
 
 SOLVING FOR HEAD 
 INITIAL HNEW IS AN EXACT SOLUTION.

 NO OUTPUT CONTROL FOR STRESS PERIOD   25   TIME STEP  707

 -------------------------------------------------------------------------------
                             SWR1 OUTPUT PRINT TIMES
                        STRESS PERIOD   25   TIME STEP   707
 --------------- --------------- --------------- --------------- ---------------
     0.17124E+06                                                                
 -------------------------------------------------------------------------------
 
 SOLVING FOR HEAD 
 INITIAL HNEW IS AN EXACT SOLUTION.

 NO OUTPUT CONTROL FOR STRESS PERIOD   25   TIME STEP  708

 -------------------------------------------------------------------------------
                             SWR1 OUTPUT PRINT TIMES
                        STRESS PERIOD   25   TIME STEP   708
 --------------- --------------- --------------- --------------- ---------------
     0.17136E+06                                                                
 -------------------------------------------------------------------------------
 
 SOLVING FOR HEAD 
 INITIAL HNEW IS AN EXACT SOLUTION.

 NO OUTPUT CONTROL FOR STRESS PERIOD   25   TIME STEP  709

 -------------------------------------------------------------------------------
                             SWR1 OUTPUT PRINT TIMES
                        STRESS PERIOD   25   TIME STEP   709
 --------------- --------------- --------------- --------------- ---------------
     0.17148E+06                                                                
 -------------------------------------------------------------------------------
 
 SOLVING FOR HEAD 
 INITIAL HNEW IS AN EXACT SOLUTION.

 NO OUTPUT CONTROL FOR STRESS PERIOD   25   TIME STEP  710

 -------------------------------------------------------------------------------
                             SWR1 OUTPUT PRINT TIMES
                        STRESS PERIOD   25   TIME STEP   710
 --------------- --------------- --------------- --------------- ---------------
     0.17160E+06                                                                
 -------------------------------------------------------------------------------
 
 SOLVING FOR HEAD 
 INITIAL HNEW IS AN EXACT SOLUTION.

 NO OUTPUT CONTROL FOR STRESS PERIOD   25   TIME STEP  711

 -------------------------------------------------------------------------------
                             SWR1 OUTPUT PRINT TIMES
                        STRESS PERIOD   25   TIME STEP   711
 --------------- --------------- --------------- --------------- ---------------
     0.17172E+06                                                                
 -------------------------------------------------------------------------------
 
 SOLVING FOR HEAD 
 INITIAL HNEW IS AN EXACT SOLUTION.

 NO OUTPUT CONTROL FOR STRESS PERIOD   25   TIME STEP  712

 -------------------------------------------------------------------------------
                             SWR1 OUTPUT PRINT TIMES
                        STRESS PERIOD   25   TIME STEP   712
 --------------- --------------- --------------- --------------- ---------------
     0.17184E+06                                                                
 -------------------------------------------------------------------------------
 
 SOLVING FOR HEAD 
 INITIAL HNEW IS AN EXACT SOLUTION.

 NO OUTPUT CONTROL FOR STRESS PERIOD   25   TIME STEP  713

 -------------------------------------------------------------------------------
                             SWR1 OUTPUT PRINT TIMES
                        STRESS PERIOD   25   TIME STEP   713
 --------------- --------------- --------------- --------------- ---------------
     0.17196E+06                                                                
 -------------------------------------------------------------------------------
 
 SOLVING FOR HEAD 
 INITIAL HNEW IS AN EXACT SOLUTION.

 NO OUTPUT CONTROL FOR STRESS PERIOD   25   TIME STEP  714

 -------------------------------------------------------------------------------
                             SWR1 OUTPUT PRINT TIMES
                        STRESS PERIOD   25   TIME STEP   714
 --------------- --------------- --------------- --------------- ---------------
     0.17208E+06                                                                
 -------------------------------------------------------------------------------
 
 SOLVING FOR HEAD 
 INITIAL HNEW IS AN EXACT SOLUTION.

 NO OUTPUT CONTROL FOR STRESS PERIOD   25   TIME STEP  715

 -------------------------------------------------------------------------------
                             SWR1 OUTPUT PRINT TIMES
                        STRESS PERIOD   25   TIME STEP   715
 --------------- --------------- --------------- --------------- ---------------
     0.17220E+06                                                                
 -------------------------------------------------------------------------------
 
 SOLVING FOR HEAD 
 INITIAL HNEW IS AN EXACT SOLUTION.

 NO OUTPUT CONTROL FOR STRESS PERIOD   25   TIME STEP  716

 -------------------------------------------------------------------------------
                             SWR1 OUTPUT PRINT TIMES
                        STRESS PERIOD   25   TIME STEP   716
 --------------- --------------- --------------- --------------- ---------------
     0.17232E+06                                                                
 -------------------------------------------------------------------------------
 
 SOLVING FOR HEAD 
 INITIAL HNEW IS AN EXACT SOLUTION.

 NO OUTPUT CONTROL FOR STRESS PERIOD   25   TIME STEP  717

 -------------------------------------------------------------------------------
                             SWR1 OUTPUT PRINT TIMES
                        STRESS PERIOD   25   TIME STEP   717
 --------------- --------------- --------------- --------------- ---------------
     0.17244E+06                                                                
 -------------------------------------------------------------------------------
 
 SOLVING FOR HEAD 
 INITIAL HNEW IS AN EXACT SOLUTION.

 NO OUTPUT CONTROL FOR STRESS PERIOD   25   TIME STEP  718

 -------------------------------------------------------------------------------
                             SWR1 OUTPUT PRINT TIMES
                        STRESS PERIOD   25   TIME STEP   718
 --------------- --------------- --------------- --------------- ---------------
     0.17256E+06                                                                
 -------------------------------------------------------------------------------
 
 SOLVING FOR HEAD 
 INITIAL HNEW IS AN EXACT SOLUTION.

 NO OUTPUT CONTROL FOR STRESS PERIOD   25   TIME STEP  719

 -------------------------------------------------------------------------------
                             SWR1 OUTPUT PRINT TIMES
                        STRESS PERIOD   25   TIME STEP   719
 --------------- --------------- --------------- --------------- ---------------
     0.17268E+06                                                                
 -------------------------------------------------------------------------------
 
 SOLVING FOR HEAD 
 INITIAL HNEW IS AN EXACT SOLUTION.

 NO OUTPUT CONTROL FOR STRESS PERIOD   25   TIME STEP  720

 -------------------------------------------------------------------------------
                             SWR1 OUTPUT PRINT TIMES
                        STRESS PERIOD   25   TIME STEP   720
 --------------- --------------- --------------- --------------- ---------------
     0.17280E+06                                                                
 -------------------------------------------------------------------------------
 
 SOLVING FOR HEAD 
 INITIAL HNEW IS AN EXACT SOLUTION.

 NO OUTPUT CONTROL FOR STRESS PERIOD   25   TIME STEP  721

 -------------------------------------------------------------------------------
                             SWR1 OUTPUT PRINT TIMES
                        STRESS PERIOD   25   TIME STEP   721
 --------------- --------------- --------------- --------------- ---------------
     0.17292E+06                                                                
 -------------------------------------------------------------------------------
 
 SOLVING FOR HEAD 
 INITIAL HNEW IS AN EXACT SOLUTION.

 NO OUTPUT CONTROL FOR STRESS PERIOD   25   TIME STEP  722

 -------------------------------------------------------------------------------
                             SWR1 OUTPUT PRINT TIMES
                        STRESS PERIOD   25   TIME STEP   722
 --------------- --------------- --------------- --------------- ---------------
     0.17304E+06                                                                
 -------------------------------------------------------------------------------
 
 SOLVING FOR HEAD 
 INITIAL HNEW IS AN EXACT SOLUTION.

 NO OUTPUT CONTROL FOR STRESS PERIOD   25   TIME STEP  723

 -------------------------------------------------------------------------------
                             SWR1 OUTPUT PRINT TIMES
                        STRESS PERIOD   25   TIME STEP   723
 --------------- --------------- --------------- --------------- ---------------
     0.17316E+06                                                                
 -------------------------------------------------------------------------------
 
 SOLVING FOR HEAD 
 INITIAL HNEW IS AN EXACT SOLUTION.

 NO OUTPUT CONTROL FOR STRESS PERIOD   25   TIME STEP  724

 -------------------------------------------------------------------------------
                             SWR1 OUTPUT PRINT TIMES
                        STRESS PERIOD   25   TIME STEP   724
 --------------- --------------- --------------- --------------- ---------------
     0.17328E+06                                                                
 -------------------------------------------------------------------------------
 
 SOLVING FOR HEAD 
 INITIAL HNEW IS AN EXACT SOLUTION.

 NO OUTPUT CONTROL FOR STRESS PERIOD   25   TIME STEP  725

 -------------------------------------------------------------------------------
                             SWR1 OUTPUT PRINT TIMES
                        STRESS PERIOD   25   TIME STEP   725
 --------------- --------------- --------------- --------------- ---------------
     0.17340E+06                                                                
 -------------------------------------------------------------------------------
 
 SOLVING FOR HEAD 
 INITIAL HNEW IS AN EXACT SOLUTION.

 NO OUTPUT CONTROL FOR STRESS PERIOD   25   TIME STEP  726

 -------------------------------------------------------------------------------
                             SWR1 OUTPUT PRINT TIMES
                        STRESS PERIOD   25   TIME STEP   726
 --------------- --------------- --------------- --------------- ---------------
     0.17352E+06                                                                
 -------------------------------------------------------------------------------
 
 SOLVING FOR HEAD 
 INITIAL HNEW IS AN EXACT SOLUTION.

 NO OUTPUT CONTROL FOR STRESS PERIOD   25   TIME STEP  727

 -------------------------------------------------------------------------------
                             SWR1 OUTPUT PRINT TIMES
                        STRESS PERIOD   25   TIME STEP   727
 --------------- --------------- --------------- --------------- ---------------
     0.17364E+06                                                                
 -------------------------------------------------------------------------------
 
 SOLVING FOR HEAD 
 INITIAL HNEW IS AN EXACT SOLUTION.

 NO OUTPUT CONTROL FOR STRESS PERIOD   25   TIME STEP  728

 -------------------------------------------------------------------------------
                             SWR1 OUTPUT PRINT TIMES
                        STRESS PERIOD   25   TIME STEP   728
 --------------- --------------- --------------- --------------- ---------------
     0.17376E+06                                                                
 -------------------------------------------------------------------------------
 
 SOLVING FOR HEAD 
 INITIAL HNEW IS AN EXACT SOLUTION.

 NO OUTPUT CONTROL FOR STRESS PERIOD   25   TIME STEP  729

 -------------------------------------------------------------------------------
                             SWR1 OUTPUT PRINT TIMES
                        STRESS PERIOD   25   TIME STEP   729
 --------------- --------------- --------------- --------------- ---------------
     0.17388E+06                                                                
 -------------------------------------------------------------------------------
 
 SOLVING FOR HEAD 
 INITIAL HNEW IS AN EXACT SOLUTION.

 NO OUTPUT CONTROL FOR STRESS PERIOD   25   TIME STEP  730

 -------------------------------------------------------------------------------
                             SWR1 OUTPUT PRINT TIMES
                        STRESS PERIOD   25   TIME STEP   730
 --------------- --------------- --------------- --------------- ---------------
     0.17400E+06                                                                
 -------------------------------------------------------------------------------
 
 SOLVING FOR HEAD 
 INITIAL HNEW IS AN EXACT SOLUTION.

 NO OUTPUT CONTROL FOR STRESS PERIOD   25   TIME STEP  731

 -------------------------------------------------------------------------------
                             SWR1 OUTPUT PRINT TIMES
                        STRESS PERIOD   25   TIME STEP   731
 --------------- --------------- --------------- --------------- ---------------
     0.17412E+06                                                                
 -------------------------------------------------------------------------------
 
 SOLVING FOR HEAD 
 INITIAL HNEW IS AN EXACT SOLUTION.

 NO OUTPUT CONTROL FOR STRESS PERIOD   25   TIME STEP  732

 -------------------------------------------------------------------------------
                             SWR1 OUTPUT PRINT TIMES
                        STRESS PERIOD   25   TIME STEP   732
 --------------- --------------- --------------- --------------- ---------------
     0.17424E+06                                                                
 -------------------------------------------------------------------------------
 
 SOLVING FOR HEAD 
 INITIAL HNEW IS AN EXACT SOLUTION.

 NO OUTPUT CONTROL FOR STRESS PERIOD   25   TIME STEP  733

 -------------------------------------------------------------------------------
                             SWR1 OUTPUT PRINT TIMES
                        STRESS PERIOD   25   TIME STEP   733
 --------------- --------------- --------------- --------------- ---------------
     0.17436E+06                                                                
 -------------------------------------------------------------------------------
 
 SOLVING FOR HEAD 
 INITIAL HNEW IS AN EXACT SOLUTION.

 NO OUTPUT CONTROL FOR STRESS PERIOD   25   TIME STEP  734

 -------------------------------------------------------------------------------
                             SWR1 OUTPUT PRINT TIMES
                        STRESS PERIOD   25   TIME STEP   734
 --------------- --------------- --------------- --------------- ---------------
     0.17448E+06                                                                
 -------------------------------------------------------------------------------
 
 SOLVING FOR HEAD 
 INITIAL HNEW IS AN EXACT SOLUTION.

 NO OUTPUT CONTROL FOR STRESS PERIOD   25   TIME STEP  735

 -------------------------------------------------------------------------------
                             SWR1 OUTPUT PRINT TIMES
                        STRESS PERIOD   25   TIME STEP   735
 --------------- --------------- --------------- --------------- ---------------
     0.17460E+06                                                                
 -------------------------------------------------------------------------------
 
 SOLVING FOR HEAD 
 INITIAL HNEW IS AN EXACT SOLUTION.

 NO OUTPUT CONTROL FOR STRESS PERIOD   25   TIME STEP  736

 -------------------------------------------------------------------------------
                             SWR1 OUTPUT PRINT TIMES
                        STRESS PERIOD   25   TIME STEP   736
 --------------- --------------- --------------- --------------- ---------------
     0.17472E+06                                                                
 -------------------------------------------------------------------------------
 
 SOLVING FOR HEAD 
 INITIAL HNEW IS AN EXACT SOLUTION.

 NO OUTPUT CONTROL FOR STRESS PERIOD   25   TIME STEP  737

 -------------------------------------------------------------------------------
                             SWR1 OUTPUT PRINT TIMES
                        STRESS PERIOD   25   TIME STEP   737
 --------------- --------------- --------------- --------------- ---------------
     0.17484E+06                                                                
 -------------------------------------------------------------------------------
 
 SOLVING FOR HEAD 
 INITIAL HNEW IS AN EXACT SOLUTION.

 NO OUTPUT CONTROL FOR STRESS PERIOD   25   TIME STEP  738

 -------------------------------------------------------------------------------
                             SWR1 OUTPUT PRINT TIMES
                        STRESS PERIOD   25   TIME STEP   738
 --------------- --------------- --------------- --------------- ---------------
     0.17496E+06                                                                
 -------------------------------------------------------------------------------
 
 SOLVING FOR HEAD 
 INITIAL HNEW IS AN EXACT SOLUTION.

 NO OUTPUT CONTROL FOR STRESS PERIOD   25   TIME STEP  739

 -------------------------------------------------------------------------------
                             SWR1 OUTPUT PRINT TIMES
                        STRESS PERIOD   25   TIME STEP   739
 --------------- --------------- --------------- --------------- ---------------
     0.17508E+06                                                                
 -------------------------------------------------------------------------------
 
 SOLVING FOR HEAD 
 INITIAL HNEW IS AN EXACT SOLUTION.

 NO OUTPUT CONTROL FOR STRESS PERIOD   25   TIME STEP  740

 -------------------------------------------------------------------------------
                             SWR1 OUTPUT PRINT TIMES
                        STRESS PERIOD   25   TIME STEP   740
 --------------- --------------- --------------- --------------- ---------------
     0.17520E+06                                                                
 -------------------------------------------------------------------------------
 
 SOLVING FOR HEAD 
 INITIAL HNEW IS AN EXACT SOLUTION.

 NO OUTPUT CONTROL FOR STRESS PERIOD   25   TIME STEP  741

 -------------------------------------------------------------------------------
                             SWR1 OUTPUT PRINT TIMES
                        STRESS PERIOD   25   TIME STEP   741
 --------------- --------------- --------------- --------------- ---------------
     0.17532E+06                                                                
 -------------------------------------------------------------------------------
 
 SOLVING FOR HEAD 
 INITIAL HNEW IS AN EXACT SOLUTION.

 NO OUTPUT CONTROL FOR STRESS PERIOD   25   TIME STEP  742

 -------------------------------------------------------------------------------
                             SWR1 OUTPUT PRINT TIMES
                        STRESS PERIOD   25   TIME STEP   742
 --------------- --------------- --------------- --------------- ---------------
     0.17544E+06                                                                
 -------------------------------------------------------------------------------
 
 SOLVING FOR HEAD 
 INITIAL HNEW IS AN EXACT SOLUTION.

 NO OUTPUT CONTROL FOR STRESS PERIOD   25   TIME STEP  743

 -------------------------------------------------------------------------------
                             SWR1 OUTPUT PRINT TIMES
                        STRESS PERIOD   25   TIME STEP   743
 --------------- --------------- --------------- --------------- ---------------
     0.17556E+06                                                                
 -------------------------------------------------------------------------------
 
 SOLVING FOR HEAD 
 INITIAL HNEW IS AN EXACT SOLUTION.

 NO OUTPUT CONTROL FOR STRESS PERIOD   25   TIME STEP  744

 -------------------------------------------------------------------------------
                             SWR1 OUTPUT PRINT TIMES
                        STRESS PERIOD   25   TIME STEP   744
 --------------- --------------- --------------- --------------- ---------------
     0.17568E+06                                                                
 -------------------------------------------------------------------------------
 
 SOLVING FOR HEAD 
 INITIAL HNEW IS AN EXACT SOLUTION.

 NO OUTPUT CONTROL FOR STRESS PERIOD   25   TIME STEP  745

 -------------------------------------------------------------------------------
                             SWR1 OUTPUT PRINT TIMES
                        STRESS PERIOD   25   TIME STEP   745
 --------------- --------------- --------------- --------------- ---------------
     0.17580E+06                                                                
 -------------------------------------------------------------------------------
 
 SOLVING FOR HEAD 
 INITIAL HNEW IS AN EXACT SOLUTION.

 NO OUTPUT CONTROL FOR STRESS PERIOD   25   TIME STEP  746

 -------------------------------------------------------------------------------
                             SWR1 OUTPUT PRINT TIMES
                        STRESS PERIOD   25   TIME STEP   746
 --------------- --------------- --------------- --------------- ---------------
     0.17592E+06                                                                
 -------------------------------------------------------------------------------
 
 SOLVING FOR HEAD 
 OUTER ITER.:     2 BACKTRACK ITERS.:     8 INIT. L2NORM:  0.674E-02 FIN. L2NORM:  0.421E-02 FIN. ALPHA:  0.409     UPDATE PERFORMED
 INITIAL HNEW IS AN EXACT SOLUTION.

 NO OUTPUT CONTROL FOR STRESS PERIOD   25   TIME STEP  747

 -------------------------------------------------------------------------------
                             SWR1 OUTPUT PRINT TIMES
                        STRESS PERIOD   25   TIME STEP   747
 --------------- --------------- --------------- --------------- ---------------
     0.17604E+06                                                                
 -------------------------------------------------------------------------------
 
 SOLVING FOR HEAD 
 INITIAL HNEW IS AN EXACT SOLUTION.

 NO OUTPUT CONTROL FOR STRESS PERIOD   25   TIME STEP  748

 -------------------------------------------------------------------------------
                             SWR1 OUTPUT PRINT TIMES
                        STRESS PERIOD   25   TIME STEP   748
 --------------- --------------- --------------- --------------- ---------------
     0.17616E+06                                                                
 -------------------------------------------------------------------------------
 
 SOLVING FOR HEAD 
 INITIAL HNEW IS AN EXACT SOLUTION.

 NO OUTPUT CONTROL FOR STRESS PERIOD   25   TIME STEP  749

 -------------------------------------------------------------------------------
                             SWR1 OUTPUT PRINT TIMES
                        STRESS PERIOD   25   TIME STEP   749
 --------------- --------------- --------------- --------------- ---------------
     0.17628E+06                                                                
 -------------------------------------------------------------------------------
 
 SOLVING FOR HEAD 
 INITIAL HNEW IS AN EXACT SOLUTION.

 NO OUTPUT CONTROL FOR STRESS PERIOD   25   TIME STEP  750

 -------------------------------------------------------------------------------
                             SWR1 OUTPUT PRINT TIMES
                        STRESS PERIOD   25   TIME STEP   750
 --------------- --------------- --------------- --------------- ---------------
     0.17640E+06                                                                
 -------------------------------------------------------------------------------
 
 SOLVING FOR HEAD 
 INITIAL HNEW IS AN EXACT SOLUTION.

 NO OUTPUT CONTROL FOR STRESS PERIOD   25   TIME STEP  751

 -------------------------------------------------------------------------------
                             SWR1 OUTPUT PRINT TIMES
                        STRESS PERIOD   25   TIME STEP   751
 --------------- --------------- --------------- --------------- ---------------
     0.17652E+06                                                                
 -------------------------------------------------------------------------------
 
 SOLVING FOR HEAD 
 INITIAL HNEW IS AN EXACT SOLUTION.

 NO OUTPUT CONTROL FOR STRESS PERIOD   25   TIME STEP  752

 -------------------------------------------------------------------------------
                             SWR1 OUTPUT PRINT TIMES
                        STRESS PERIOD   25   TIME STEP   752
 --------------- --------------- --------------- --------------- ---------------
     0.17664E+06                                                                
 -------------------------------------------------------------------------------
 
 SOLVING FOR HEAD 
 INITIAL HNEW IS AN EXACT SOLUTION.

 NO OUTPUT CONTROL FOR STRESS PERIOD   25   TIME STEP  753

 -------------------------------------------------------------------------------
                             SWR1 OUTPUT PRINT TIMES
                        STRESS PERIOD   25   TIME STEP   753
 --------------- --------------- --------------- --------------- ---------------
     0.17676E+06                                                                
 -------------------------------------------------------------------------------
 
 SOLVING FOR HEAD 
 INITIAL HNEW IS AN EXACT SOLUTION.

 NO OUTPUT CONTROL FOR STRESS PERIOD   25   TIME STEP  754

 -------------------------------------------------------------------------------
                             SWR1 OUTPUT PRINT TIMES
                        STRESS PERIOD   25   TIME STEP   754
 --------------- --------------- --------------- --------------- ---------------
     0.17688E+06                                                                
 -------------------------------------------------------------------------------
 
 SOLVING FOR HEAD 
 INITIAL HNEW IS AN EXACT SOLUTION.

 NO OUTPUT CONTROL FOR STRESS PERIOD   25   TIME STEP  755

 -------------------------------------------------------------------------------
                             SWR1 OUTPUT PRINT TIMES
                        STRESS PERIOD   25   TIME STEP   755
 --------------- --------------- --------------- --------------- ---------------
     0.17700E+06                                                                
 -------------------------------------------------------------------------------
 
 SOLVING FOR HEAD 
 INITIAL HNEW IS AN EXACT SOLUTION.

 NO OUTPUT CONTROL FOR STRESS PERIOD   25   TIME STEP  756

 -------------------------------------------------------------------------------
                             SWR1 OUTPUT PRINT TIMES
                        STRESS PERIOD   25   TIME STEP   756
 --------------- --------------- --------------- --------------- ---------------
     0.17712E+06                                                                
 -------------------------------------------------------------------------------
 
 SOLVING FOR HEAD 
 INITIAL HNEW IS AN EXACT SOLUTION.

 NO OUTPUT CONTROL FOR STRESS PERIOD   25   TIME STEP  757

 -------------------------------------------------------------------------------
                             SWR1 OUTPUT PRINT TIMES
                        STRESS PERIOD   25   TIME STEP   757
 --------------- --------------- --------------- --------------- ---------------
     0.17724E+06                                                                
 -------------------------------------------------------------------------------
 
 SOLVING FOR HEAD 
 INITIAL HNEW IS AN EXACT SOLUTION.

 NO OUTPUT CONTROL FOR STRESS PERIOD   25   TIME STEP  758

 -------------------------------------------------------------------------------
                             SWR1 OUTPUT PRINT TIMES
                        STRESS PERIOD   25   TIME STEP   758
 --------------- --------------- --------------- --------------- ---------------
     0.17736E+06                                                                
 -------------------------------------------------------------------------------
 
 SOLVING FOR HEAD 
 INITIAL HNEW IS AN EXACT SOLUTION.

 NO OUTPUT CONTROL FOR STRESS PERIOD   25   TIME STEP  759

 -------------------------------------------------------------------------------
                             SWR1 OUTPUT PRINT TIMES
                        STRESS PERIOD   25   TIME STEP   759
 --------------- --------------- --------------- --------------- ---------------
     0.17748E+06                                                                
 -------------------------------------------------------------------------------
 
 SOLVING FOR HEAD 
 INITIAL HNEW IS AN EXACT SOLUTION.

 NO OUTPUT CONTROL FOR STRESS PERIOD   25   TIME STEP  760

 -------------------------------------------------------------------------------
                             SWR1 OUTPUT PRINT TIMES
                        STRESS PERIOD   25   TIME STEP   760
 --------------- --------------- --------------- --------------- ---------------
     0.17760E+06                                                                
 -------------------------------------------------------------------------------
 
 SOLVING FOR HEAD 
 INITIAL HNEW IS AN EXACT SOLUTION.

 NO OUTPUT CONTROL FOR STRESS PERIOD   25   TIME STEP  761

 -------------------------------------------------------------------------------
                             SWR1 OUTPUT PRINT TIMES
                        STRESS PERIOD   25   TIME STEP   761
 --------------- --------------- --------------- --------------- ---------------
     0.17772E+06                                                                
 -------------------------------------------------------------------------------
 
 SOLVING FOR HEAD 
 INITIAL HNEW IS AN EXACT SOLUTION.

 NO OUTPUT CONTROL FOR STRESS PERIOD   25   TIME STEP  762

 -------------------------------------------------------------------------------
                             SWR1 OUTPUT PRINT TIMES
                        STRESS PERIOD   25   TIME STEP   762
 --------------- --------------- --------------- --------------- ---------------
     0.17784E+06                                                                
 -------------------------------------------------------------------------------
 
 SOLVING FOR HEAD 
 INITIAL HNEW IS AN EXACT SOLUTION.

 NO OUTPUT CONTROL FOR STRESS PERIOD   25   TIME STEP  763

 -------------------------------------------------------------------------------
                             SWR1 OUTPUT PRINT TIMES
                        STRESS PERIOD   25   TIME STEP   763
 --------------- --------------- --------------- --------------- ---------------
     0.17796E+06                                                                
 -------------------------------------------------------------------------------
 
 SOLVING FOR HEAD 
 INITIAL HNEW IS AN EXACT SOLUTION.

 NO OUTPUT CONTROL FOR STRESS PERIOD   25   TIME STEP  764

 -------------------------------------------------------------------------------
                             SWR1 OUTPUT PRINT TIMES
                        STRESS PERIOD   25   TIME STEP   764
 --------------- --------------- --------------- --------------- ---------------
     0.17808E+06                                                                
 -------------------------------------------------------------------------------
 
 SOLVING FOR HEAD 
 INITIAL HNEW IS AN EXACT SOLUTION.

 NO OUTPUT CONTROL FOR STRESS PERIOD   25   TIME STEP  765

 -------------------------------------------------------------------------------
                             SWR1 OUTPUT PRINT TIMES
                        STRESS PERIOD   25   TIME STEP   765
 --------------- --------------- --------------- --------------- ---------------
     0.17820E+06                                                                
 -------------------------------------------------------------------------------
 
 SOLVING FOR HEAD 
 INITIAL HNEW IS AN EXACT SOLUTION.

 NO OUTPUT CONTROL FOR STRESS PERIOD   25   TIME STEP  766

 -------------------------------------------------------------------------------
                             SWR1 OUTPUT PRINT TIMES
                        STRESS PERIOD   25   TIME STEP   766
 --------------- --------------- --------------- --------------- ---------------
     0.17832E+06                                                                
 -------------------------------------------------------------------------------
 
 SOLVING FOR HEAD 
 INITIAL HNEW IS AN EXACT SOLUTION.

 NO OUTPUT CONTROL FOR STRESS PERIOD   25   TIME STEP  767

 -------------------------------------------------------------------------------
                             SWR1 OUTPUT PRINT TIMES
                        STRESS PERIOD   25   TIME STEP   767
 --------------- --------------- --------------- --------------- ---------------
     0.17844E+06                                                                
 -------------------------------------------------------------------------------
 
 SOLVING FOR HEAD 
 INITIAL HNEW IS AN EXACT SOLUTION.

 NO OUTPUT CONTROL FOR STRESS PERIOD   25   TIME STEP  768

 -------------------------------------------------------------------------------
                             SWR1 OUTPUT PRINT TIMES
                        STRESS PERIOD   25   TIME STEP   768
 --------------- --------------- --------------- --------------- ---------------
     0.17856E+06                                                                
 -------------------------------------------------------------------------------
 
 SOLVING FOR HEAD 
 INITIAL HNEW IS AN EXACT SOLUTION.

 NO OUTPUT CONTROL FOR STRESS PERIOD   25   TIME STEP  769

 -------------------------------------------------------------------------------
                             SWR1 OUTPUT PRINT TIMES
                        STRESS PERIOD   25   TIME STEP   769
 --------------- --------------- --------------- --------------- ---------------
     0.17868E+06                                                                
 -------------------------------------------------------------------------------
 
 SOLVING FOR HEAD 
 INITIAL HNEW IS AN EXACT SOLUTION.

 NO OUTPUT CONTROL FOR STRESS PERIOD   25   TIME STEP  770

 -------------------------------------------------------------------------------
                             SWR1 OUTPUT PRINT TIMES
                        STRESS PERIOD   25   TIME STEP   770
 --------------- --------------- --------------- --------------- ---------------
     0.17880E+06                                                                
 -------------------------------------------------------------------------------
 
 SOLVING FOR HEAD 
 INITIAL HNEW IS AN EXACT SOLUTION.

 NO OUTPUT CONTROL FOR STRESS PERIOD   25   TIME STEP  771

 -------------------------------------------------------------------------------
                             SWR1 OUTPUT PRINT TIMES
                        STRESS PERIOD   25   TIME STEP   771
 --------------- --------------- --------------- --------------- ---------------
     0.17892E+06                                                                
 -------------------------------------------------------------------------------
 
 SOLVING FOR HEAD 
 INITIAL HNEW IS AN EXACT SOLUTION.

 NO OUTPUT CONTROL FOR STRESS PERIOD   25   TIME STEP  772

 -------------------------------------------------------------------------------
                             SWR1 OUTPUT PRINT TIMES
                        STRESS PERIOD   25   TIME STEP   772
 --------------- --------------- --------------- --------------- ---------------
     0.17904E+06                                                                
 -------------------------------------------------------------------------------
 
 SOLVING FOR HEAD 
 INITIAL HNEW IS AN EXACT SOLUTION.

 NO OUTPUT CONTROL FOR STRESS PERIOD   25   TIME STEP  773

 -------------------------------------------------------------------------------
                             SWR1 OUTPUT PRINT TIMES
                        STRESS PERIOD   25   TIME STEP   773
 --------------- --------------- --------------- --------------- ---------------
     0.17916E+06                                                                
 -------------------------------------------------------------------------------
 
 SOLVING FOR HEAD 
 INITIAL HNEW IS AN EXACT SOLUTION.

 NO OUTPUT CONTROL FOR STRESS PERIOD   25   TIME STEP  774

 -------------------------------------------------------------------------------
                             SWR1 OUTPUT PRINT TIMES
                        STRESS PERIOD   25   TIME STEP   774
 --------------- --------------- --------------- --------------- ---------------
     0.17928E+06                                                                
 -------------------------------------------------------------------------------
 
 SOLVING FOR HEAD 
 INITIAL HNEW IS AN EXACT SOLUTION.

 NO OUTPUT CONTROL FOR STRESS PERIOD   25   TIME STEP  775

 -------------------------------------------------------------------------------
                             SWR1 OUTPUT PRINT TIMES
                        STRESS PERIOD   25   TIME STEP   775
 --------------- --------------- --------------- --------------- ---------------
     0.17940E+06                                                                
 -------------------------------------------------------------------------------
 
 SOLVING FOR HEAD 
 INITIAL HNEW IS AN EXACT SOLUTION.

 NO OUTPUT CONTROL FOR STRESS PERIOD   25   TIME STEP  776

 -------------------------------------------------------------------------------
                             SWR1 OUTPUT PRINT TIMES
                        STRESS PERIOD   25   TIME STEP   776
 --------------- --------------- --------------- --------------- ---------------
     0.17952E+06                                                                
 -------------------------------------------------------------------------------
 
 SOLVING FOR HEAD 
 INITIAL HNEW IS AN EXACT SOLUTION.

 NO OUTPUT CONTROL FOR STRESS PERIOD   25   TIME STEP  777

 -------------------------------------------------------------------------------
                             SWR1 OUTPUT PRINT TIMES
                        STRESS PERIOD   25   TIME STEP   777
 --------------- --------------- --------------- --------------- ---------------
     0.17964E+06                                                                
 -------------------------------------------------------------------------------
 
 SOLVING FOR HEAD 
 INITIAL HNEW IS AN EXACT SOLUTION.

 NO OUTPUT CONTROL FOR STRESS PERIOD   25   TIME STEP  778

 -------------------------------------------------------------------------------
                             SWR1 OUTPUT PRINT TIMES
                        STRESS PERIOD   25   TIME STEP   778
 --------------- --------------- --------------- --------------- ---------------
     0.17976E+06                                                                
 -------------------------------------------------------------------------------
 
 SOLVING FOR HEAD 
 INITIAL HNEW IS AN EXACT SOLUTION.

 NO OUTPUT CONTROL FOR STRESS PERIOD   25   TIME STEP  779

 -------------------------------------------------------------------------------
                             SWR1 OUTPUT PRINT TIMES
                        STRESS PERIOD   25   TIME STEP   779
 --------------- --------------- --------------- --------------- ---------------
     0.17988E+06                                                                
 -------------------------------------------------------------------------------
 
 SOLVING FOR HEAD 
 INITIAL HNEW IS AN EXACT SOLUTION.

 NO OUTPUT CONTROL FOR STRESS PERIOD   25   TIME STEP  780

 -------------------------------------------------------------------------------
                             SWR1 OUTPUT PRINT TIMES
                        STRESS PERIOD   25   TIME STEP   780
 --------------- --------------- --------------- --------------- ---------------
     0.18000E+06                                                                
 -------------------------------------------------------------------------------
 
 SOLVING FOR HEAD 
 INITIAL HNEW IS AN EXACT SOLUTION.

 NO OUTPUT CONTROL FOR STRESS PERIOD   25   TIME STEP  781

 -------------------------------------------------------------------------------
                             SWR1 OUTPUT PRINT TIMES
                        STRESS PERIOD   25   TIME STEP   781
 --------------- --------------- --------------- --------------- ---------------
     0.18012E+06                                                                
 -------------------------------------------------------------------------------
 
 SOLVING FOR HEAD 
 INITIAL HNEW IS AN EXACT SOLUTION.

 NO OUTPUT CONTROL FOR STRESS PERIOD   25   TIME STEP  782

 -------------------------------------------------------------------------------
                             SWR1 OUTPUT PRINT TIMES
                        STRESS PERIOD   25   TIME STEP   782
 --------------- --------------- --------------- --------------- ---------------
     0.18024E+06                                                                
 -------------------------------------------------------------------------------
 
 SOLVING FOR HEAD 
 INITIAL HNEW IS AN EXACT SOLUTION.

 NO OUTPUT CONTROL FOR STRESS PERIOD   25   TIME STEP  783

 -------------------------------------------------------------------------------
                             SWR1 OUTPUT PRINT TIMES
                        STRESS PERIOD   25   TIME STEP   783
 --------------- --------------- --------------- --------------- ---------------
     0.18036E+06                                                                
 -------------------------------------------------------------------------------
 
 SOLVING FOR HEAD 
 INITIAL HNEW IS AN EXACT SOLUTION.

 NO OUTPUT CONTROL FOR STRESS PERIOD   25   TIME STEP  784

 -------------------------------------------------------------------------------
                             SWR1 OUTPUT PRINT TIMES
                        STRESS PERIOD   25   TIME STEP   784
 --------------- --------------- --------------- --------------- ---------------
     0.18048E+06                                                                
 -------------------------------------------------------------------------------
 
 SOLVING FOR HEAD 
 INITIAL HNEW IS AN EXACT SOLUTION.

 NO OUTPUT CONTROL FOR STRESS PERIOD   25   TIME STEP  785

 -------------------------------------------------------------------------------
                             SWR1 OUTPUT PRINT TIMES
                        STRESS PERIOD   25   TIME STEP   785
 --------------- --------------- --------------- --------------- ---------------
     0.18060E+06                                                                
 -------------------------------------------------------------------------------
 
 SOLVING FOR HEAD 
 INITIAL HNEW IS AN EXACT SOLUTION.

 NO OUTPUT CONTROL FOR STRESS PERIOD   25   TIME STEP  786

 -------------------------------------------------------------------------------
                             SWR1 OUTPUT PRINT TIMES
                        STRESS PERIOD   25   TIME STEP   786
 --------------- --------------- --------------- --------------- ---------------
     0.18072E+06                                                                
 -------------------------------------------------------------------------------
 
 SOLVING FOR HEAD 
 INITIAL HNEW IS AN EXACT SOLUTION.

 NO OUTPUT CONTROL FOR STRESS PERIOD   25   TIME STEP  787

 -------------------------------------------------------------------------------
                             SWR1 OUTPUT PRINT TIMES
                        STRESS PERIOD   25   TIME STEP   787
 --------------- --------------- --------------- --------------- ---------------
     0.18084E+06                                                                
 -------------------------------------------------------------------------------
 
 SOLVING FOR HEAD 
 INITIAL HNEW IS AN EXACT SOLUTION.

 NO OUTPUT CONTROL FOR STRESS PERIOD   25   TIME STEP  788

 -------------------------------------------------------------------------------
                             SWR1 OUTPUT PRINT TIMES
                        STRESS PERIOD   25   TIME STEP   788
 --------------- --------------- --------------- --------------- ---------------
     0.18096E+06                                                                
 -------------------------------------------------------------------------------
 
 SOLVING FOR HEAD 
 INITIAL HNEW IS AN EXACT SOLUTION.

 NO OUTPUT CONTROL FOR STRESS PERIOD   25   TIME STEP  789

 -------------------------------------------------------------------------------
                             SWR1 OUTPUT PRINT TIMES
                        STRESS PERIOD   25   TIME STEP   789
 --------------- --------------- --------------- --------------- ---------------
     0.18108E+06                                                                
 -------------------------------------------------------------------------------
 
 SOLVING FOR HEAD 
 INITIAL HNEW IS AN EXACT SOLUTION.

 NO OUTPUT CONTROL FOR STRESS PERIOD   25   TIME STEP  790

 -------------------------------------------------------------------------------
                             SWR1 OUTPUT PRINT TIMES
                        STRESS PERIOD   25   TIME STEP   790
 --------------- --------------- --------------- --------------- ---------------
     0.18120E+06                                                                
 -------------------------------------------------------------------------------
 
 SOLVING FOR HEAD 
 INITIAL HNEW IS AN EXACT SOLUTION.

 NO OUTPUT CONTROL FOR STRESS PERIOD   25   TIME STEP  791

 -------------------------------------------------------------------------------
                             SWR1 OUTPUT PRINT TIMES
                        STRESS PERIOD   25   TIME STEP   791
 --------------- --------------- --------------- --------------- ---------------
     0.18132E+06                                                                
 -------------------------------------------------------------------------------
 
 SOLVING FOR HEAD 
 INITIAL HNEW IS AN EXACT SOLUTION.

 NO OUTPUT CONTROL FOR STRESS PERIOD   25   TIME STEP  792

 -------------------------------------------------------------------------------
                             SWR1 OUTPUT PRINT TIMES
                        STRESS PERIOD   25   TIME STEP   792
 --------------- --------------- --------------- --------------- ---------------
     0.18144E+06                                                                
 -------------------------------------------------------------------------------
 
 SOLVING FOR HEAD 
 INITIAL HNEW IS AN EXACT SOLUTION.

 NO OUTPUT CONTROL FOR STRESS PERIOD   25   TIME STEP  793

 -------------------------------------------------------------------------------
                             SWR1 OUTPUT PRINT TIMES
                        STRESS PERIOD   25   TIME STEP   793
 --------------- --------------- --------------- --------------- ---------------
     0.18156E+06                                                                
 -------------------------------------------------------------------------------
 
 SOLVING FOR HEAD 
 INITIAL HNEW IS AN EXACT SOLUTION.

 NO OUTPUT CONTROL FOR STRESS PERIOD   25   TIME STEP  794

 -------------------------------------------------------------------------------
                             SWR1 OUTPUT PRINT TIMES
                        STRESS PERIOD   25   TIME STEP   794
 --------------- --------------- --------------- --------------- ---------------
     0.18168E+06                                                                
 -------------------------------------------------------------------------------
 
 SOLVING FOR HEAD 
 INITIAL HNEW IS AN EXACT SOLUTION.

 NO OUTPUT CONTROL FOR STRESS PERIOD   25   TIME STEP  795

 -------------------------------------------------------------------------------
                             SWR1 OUTPUT PRINT TIMES
                        STRESS PERIOD   25   TIME STEP   795
 --------------- --------------- --------------- --------------- ---------------
     0.18180E+06                                                                
 -------------------------------------------------------------------------------
 
 SOLVING FOR HEAD 
 INITIAL HNEW IS AN EXACT SOLUTION.

 NO OUTPUT CONTROL FOR STRESS PERIOD   25   TIME STEP  796

 -------------------------------------------------------------------------------
                             SWR1 OUTPUT PRINT TIMES
                        STRESS PERIOD   25   TIME STEP   796
 --------------- --------------- --------------- --------------- ---------------
     0.18192E+06                                                                
 -------------------------------------------------------------------------------
 
 SOLVING FOR HEAD 
 INITIAL HNEW IS AN EXACT SOLUTION.

 NO OUTPUT CONTROL FOR STRESS PERIOD   25   TIME STEP  797

 -------------------------------------------------------------------------------
                             SWR1 OUTPUT PRINT TIMES
                        STRESS PERIOD   25   TIME STEP   797
 --------------- --------------- --------------- --------------- ---------------
     0.18204E+06                                                                
 -------------------------------------------------------------------------------
 
 SOLVING FOR HEAD 
 INITIAL HNEW IS AN EXACT SOLUTION.

 NO OUTPUT CONTROL FOR STRESS PERIOD   25   TIME STEP  798

 -------------------------------------------------------------------------------
                             SWR1 OUTPUT PRINT TIMES
                        STRESS PERIOD   25   TIME STEP   798
 --------------- --------------- --------------- --------------- ---------------
     0.18216E+06                                                                
 -------------------------------------------------------------------------------
 
 SOLVING FOR HEAD 
 INITIAL HNEW IS AN EXACT SOLUTION.

 NO OUTPUT CONTROL FOR STRESS PERIOD   25   TIME STEP  799

 -------------------------------------------------------------------------------
                             SWR1 OUTPUT PRINT TIMES
                        STRESS PERIOD   25   TIME STEP   799
 --------------- --------------- --------------- --------------- ---------------
     0.18228E+06                                                                
 -------------------------------------------------------------------------------
 
 SOLVING FOR HEAD 
 INITIAL HNEW IS AN EXACT SOLUTION.

 NO OUTPUT CONTROL FOR STRESS PERIOD   25   TIME STEP  800

 -------------------------------------------------------------------------------
                             SWR1 OUTPUT PRINT TIMES
                        STRESS PERIOD   25   TIME STEP   800
 --------------- --------------- --------------- --------------- ---------------
     0.18240E+06                                                                
 -------------------------------------------------------------------------------
 
 SOLVING FOR HEAD 
 INITIAL HNEW IS AN EXACT SOLUTION.

 NO OUTPUT CONTROL FOR STRESS PERIOD   25   TIME STEP  801

 -------------------------------------------------------------------------------
                             SWR1 OUTPUT PRINT TIMES
                        STRESS PERIOD   25   TIME STEP   801
 --------------- --------------- --------------- --------------- ---------------
     0.18252E+06                                                                
 -------------------------------------------------------------------------------
 
 SOLVING FOR HEAD 
 INITIAL HNEW IS AN EXACT SOLUTION.

 NO OUTPUT CONTROL FOR STRESS PERIOD   25   TIME STEP  802

 -------------------------------------------------------------------------------
                             SWR1 OUTPUT PRINT TIMES
                        STRESS PERIOD   25   TIME STEP   802
 --------------- --------------- --------------- --------------- ---------------
     0.18264E+06                                                                
 -------------------------------------------------------------------------------
 
 SOLVING FOR HEAD 
 INITIAL HNEW IS AN EXACT SOLUTION.

 NO OUTPUT CONTROL FOR STRESS PERIOD   25   TIME STEP  803

 -------------------------------------------------------------------------------
                             SWR1 OUTPUT PRINT TIMES
                        STRESS PERIOD   25   TIME STEP   803
 --------------- --------------- --------------- --------------- ---------------
     0.18276E+06                                                                
 -------------------------------------------------------------------------------
 
 SOLVING FOR HEAD 
 INITIAL HNEW IS AN EXACT SOLUTION.

 NO OUTPUT CONTROL FOR STRESS PERIOD   25   TIME STEP  804

 -------------------------------------------------------------------------------
                             SWR1 OUTPUT PRINT TIMES
                        STRESS PERIOD   25   TIME STEP   804
 --------------- --------------- --------------- --------------- ---------------
     0.18288E+06                                                                
 -------------------------------------------------------------------------------
 
 SOLVING FOR HEAD 
 INITIAL HNEW IS AN EXACT SOLUTION.

 NO OUTPUT CONTROL FOR STRESS PERIOD   25   TIME STEP  805

 -------------------------------------------------------------------------------
                             SWR1 OUTPUT PRINT TIMES
                        STRESS PERIOD   25   TIME STEP   805
 --------------- --------------- --------------- --------------- ---------------
     0.18300E+06                                                                
 -------------------------------------------------------------------------------
 
 SOLVING FOR HEAD 
 INITIAL HNEW IS AN EXACT SOLUTION.

 NO OUTPUT CONTROL FOR STRESS PERIOD   25   TIME STEP  806

 -------------------------------------------------------------------------------
                             SWR1 OUTPUT PRINT TIMES
                        STRESS PERIOD   25   TIME STEP   806
 --------------- --------------- --------------- --------------- ---------------
     0.18312E+06                                                                
 -------------------------------------------------------------------------------
 
 SOLVING FOR HEAD 
 INITIAL HNEW IS AN EXACT SOLUTION.

 NO OUTPUT CONTROL FOR STRESS PERIOD   25   TIME STEP  807

 -------------------------------------------------------------------------------
                             SWR1 OUTPUT PRINT TIMES
                        STRESS PERIOD   25   TIME STEP   807
 --------------- --------------- --------------- --------------- ---------------
     0.18324E+06                                                                
 -------------------------------------------------------------------------------
 
 SOLVING FOR HEAD 
 INITIAL HNEW IS AN EXACT SOLUTION.

 NO OUTPUT CONTROL FOR STRESS PERIOD   25   TIME STEP  808

 -------------------------------------------------------------------------------
                             SWR1 OUTPUT PRINT TIMES
                        STRESS PERIOD   25   TIME STEP   808
 --------------- --------------- --------------- --------------- ---------------
     0.18336E+06                                                                
 -------------------------------------------------------------------------------
 
 SOLVING FOR HEAD 
 INITIAL HNEW IS AN EXACT SOLUTION.

 NO OUTPUT CONTROL FOR STRESS PERIOD   25   TIME STEP  809

 -------------------------------------------------------------------------------
                             SWR1 OUTPUT PRINT TIMES
                        STRESS PERIOD   25   TIME STEP   809
 --------------- --------------- --------------- --------------- ---------------
     0.18348E+06                                                                
 -------------------------------------------------------------------------------
 
 SOLVING FOR HEAD 
 INITIAL HNEW IS AN EXACT SOLUTION.

 NO OUTPUT CONTROL FOR STRESS PERIOD   25   TIME STEP  810

 -------------------------------------------------------------------------------
                             SWR1 OUTPUT PRINT TIMES
                        STRESS PERIOD   25   TIME STEP   810
 --------------- --------------- --------------- --------------- ---------------
     0.18360E+06                                                                
 -------------------------------------------------------------------------------
 
 SOLVING FOR HEAD 
 INITIAL HNEW IS AN EXACT SOLUTION.

 NO OUTPUT CONTROL FOR STRESS PERIOD   25   TIME STEP  811

 -------------------------------------------------------------------------------
                             SWR1 OUTPUT PRINT TIMES
                        STRESS PERIOD   25   TIME STEP   811
 --------------- --------------- --------------- --------------- ---------------
     0.18372E+06                                                                
 -------------------------------------------------------------------------------
 
 SOLVING FOR HEAD 
 INITIAL HNEW IS AN EXACT SOLUTION.

 NO OUTPUT CONTROL FOR STRESS PERIOD   25   TIME STEP  812

 -------------------------------------------------------------------------------
                             SWR1 OUTPUT PRINT TIMES
                        STRESS PERIOD   25   TIME STEP   812
 --------------- --------------- --------------- --------------- ---------------
     0.18384E+06                                                                
 -------------------------------------------------------------------------------
 
 SOLVING FOR HEAD 
 INITIAL HNEW IS AN EXACT SOLUTION.

 NO OUTPUT CONTROL FOR STRESS PERIOD   25   TIME STEP  813

 -------------------------------------------------------------------------------
                             SWR1 OUTPUT PRINT TIMES
                        STRESS PERIOD   25   TIME STEP   813
 --------------- --------------- --------------- --------------- ---------------
     0.18396E+06                                                                
 -------------------------------------------------------------------------------
 
 SOLVING FOR HEAD 
 INITIAL HNEW IS AN EXACT SOLUTION.

 NO OUTPUT CONTROL FOR STRESS PERIOD   25   TIME STEP  814

 -------------------------------------------------------------------------------
                             SWR1 OUTPUT PRINT TIMES
                        STRESS PERIOD   25   TIME STEP   814
 --------------- --------------- --------------- --------------- ---------------
     0.18408E+06                                                                
 -------------------------------------------------------------------------------
 
 SOLVING FOR HEAD 
 INITIAL HNEW IS AN EXACT SOLUTION.

 NO OUTPUT CONTROL FOR STRESS PERIOD   25   TIME STEP  815

 -------------------------------------------------------------------------------
                             SWR1 OUTPUT PRINT TIMES
                        STRESS PERIOD   25   TIME STEP   815
 --------------- --------------- --------------- --------------- ---------------
     0.18420E+06                                                                
 -------------------------------------------------------------------------------
 
 SOLVING FOR HEAD 
 INITIAL HNEW IS AN EXACT SOLUTION.

 NO OUTPUT CONTROL FOR STRESS PERIOD   25   TIME STEP  816

 -------------------------------------------------------------------------------
                             SWR1 OUTPUT PRINT TIMES
                        STRESS PERIOD   25   TIME STEP   816
 --------------- --------------- --------------- --------------- ---------------
     0.18432E+06                                                                
 -------------------------------------------------------------------------------
 
 SOLVING FOR HEAD 
 INITIAL HNEW IS AN EXACT SOLUTION.

 NO OUTPUT CONTROL FOR STRESS PERIOD   25   TIME STEP  817

 -------------------------------------------------------------------------------
                             SWR1 OUTPUT PRINT TIMES
                        STRESS PERIOD   25   TIME STEP   817
 --------------- --------------- --------------- --------------- ---------------
     0.18444E+06                                                                
 -------------------------------------------------------------------------------
 
 SOLVING FOR HEAD 
 INITIAL HNEW IS AN EXACT SOLUTION.

 NO OUTPUT CONTROL FOR STRESS PERIOD   25   TIME STEP  818

 -------------------------------------------------------------------------------
                             SWR1 OUTPUT PRINT TIMES
                        STRESS PERIOD   25   TIME STEP   818
 --------------- --------------- --------------- --------------- ---------------
     0.18456E+06                                                                
 -------------------------------------------------------------------------------
 
 SOLVING FOR HEAD 
 INITIAL HNEW IS AN EXACT SOLUTION.

 NO OUTPUT CONTROL FOR STRESS PERIOD   25   TIME STEP  819

 -------------------------------------------------------------------------------
                             SWR1 OUTPUT PRINT TIMES
                        STRESS PERIOD   25   TIME STEP   819
 --------------- --------------- --------------- --------------- ---------------
     0.18468E+06                                                                
 -------------------------------------------------------------------------------
 
 SOLVING FOR HEAD 
 INITIAL HNEW IS AN EXACT SOLUTION.

 NO OUTPUT CONTROL FOR STRESS PERIOD   25   TIME STEP  820

 -------------------------------------------------------------------------------
                             SWR1 OUTPUT PRINT TIMES
                        STRESS PERIOD   25   TIME STEP   820
 --------------- --------------- --------------- --------------- ---------------
     0.18480E+06                                                                
 -------------------------------------------------------------------------------
 
 SOLVING FOR HEAD 
 INITIAL HNEW IS AN EXACT SOLUTION.

 NO OUTPUT CONTROL FOR STRESS PERIOD   25   TIME STEP  821

 -------------------------------------------------------------------------------
                             SWR1 OUTPUT PRINT TIMES
                        STRESS PERIOD   25   TIME STEP   821
 --------------- --------------- --------------- --------------- ---------------
     0.18492E+06                                                                
 -------------------------------------------------------------------------------
 
 SOLVING FOR HEAD 
 INITIAL HNEW IS AN EXACT SOLUTION.

 NO OUTPUT CONTROL FOR STRESS PERIOD   25   TIME STEP  822

 -------------------------------------------------------------------------------
                             SWR1 OUTPUT PRINT TIMES
                        STRESS PERIOD   25   TIME STEP   822
 --------------- --------------- --------------- --------------- ---------------
     0.18504E+06                                                                
 -------------------------------------------------------------------------------
 
 SOLVING FOR HEAD 
 INITIAL HNEW IS AN EXACT SOLUTION.

 NO OUTPUT CONTROL FOR STRESS PERIOD   25   TIME STEP  823

 -------------------------------------------------------------------------------
                             SWR1 OUTPUT PRINT TIMES
                        STRESS PERIOD   25   TIME STEP   823
 --------------- --------------- --------------- --------------- ---------------
     0.18516E+06                                                                
 -------------------------------------------------------------------------------
 
 SOLVING FOR HEAD 
 INITIAL HNEW IS AN EXACT SOLUTION.

 NO OUTPUT CONTROL FOR STRESS PERIOD   25   TIME STEP  824

 -------------------------------------------------------------------------------
                             SWR1 OUTPUT PRINT TIMES
                        STRESS PERIOD   25   TIME STEP   824
 --------------- --------------- --------------- --------------- ---------------
     0.18528E+06                                                                
 -------------------------------------------------------------------------------
 
 SOLVING FOR HEAD 
 INITIAL HNEW IS AN EXACT SOLUTION.

 NO OUTPUT CONTROL FOR STRESS PERIOD   25   TIME STEP  825

 -------------------------------------------------------------------------------
                             SWR1 OUTPUT PRINT TIMES
                        STRESS PERIOD   25   TIME STEP   825
 --------------- --------------- --------------- --------------- ---------------
     0.18540E+06                                                                
 -------------------------------------------------------------------------------
 
 SOLVING FOR HEAD 
 INITIAL HNEW IS AN EXACT SOLUTION.

 NO OUTPUT CONTROL FOR STRESS PERIOD   25   TIME STEP  826

 -------------------------------------------------------------------------------
                             SWR1 OUTPUT PRINT TIMES
                        STRESS PERIOD   25   TIME STEP   826
 --------------- --------------- --------------- --------------- ---------------
     0.18552E+06                                                                
 -------------------------------------------------------------------------------
 
 SOLVING FOR HEAD 
 INITIAL HNEW IS AN EXACT SOLUTION.

 NO OUTPUT CONTROL FOR STRESS PERIOD   25   TIME STEP  827

 -------------------------------------------------------------------------------
                             SWR1 OUTPUT PRINT TIMES
                        STRESS PERIOD   25   TIME STEP   827
 --------------- --------------- --------------- --------------- ---------------
     0.18564E+06                                                                
 -------------------------------------------------------------------------------
 
 SOLVING FOR HEAD 
 INITIAL HNEW IS AN EXACT SOLUTION.

 NO OUTPUT CONTROL FOR STRESS PERIOD   25   TIME STEP  828

 -------------------------------------------------------------------------------
                             SWR1 OUTPUT PRINT TIMES
                        STRESS PERIOD   25   TIME STEP   828
 --------------- --------------- --------------- --------------- ---------------
     0.18576E+06                                                                
 -------------------------------------------------------------------------------
 
 SOLVING FOR HEAD 
 INITIAL HNEW IS AN EXACT SOLUTION.

 NO OUTPUT CONTROL FOR STRESS PERIOD   25   TIME STEP  829

 -------------------------------------------------------------------------------
                             SWR1 OUTPUT PRINT TIMES
                        STRESS PERIOD   25   TIME STEP   829
 --------------- --------------- --------------- --------------- ---------------
     0.18588E+06                                                                
 -------------------------------------------------------------------------------
 
 SOLVING FOR HEAD 
 INITIAL HNEW IS AN EXACT SOLUTION.

 NO OUTPUT CONTROL FOR STRESS PERIOD   25   TIME STEP  830

 -------------------------------------------------------------------------------
                             SWR1 OUTPUT PRINT TIMES
                        STRESS PERIOD   25   TIME STEP   830
 --------------- --------------- --------------- --------------- ---------------
     0.18600E+06                                                                
 -------------------------------------------------------------------------------
 
 SOLVING FOR HEAD 
 INITIAL HNEW IS AN EXACT SOLUTION.

 NO OUTPUT CONTROL FOR STRESS PERIOD   25   TIME STEP  831

 -------------------------------------------------------------------------------
                             SWR1 OUTPUT PRINT TIMES
                        STRESS PERIOD   25   TIME STEP   831
 --------------- --------------- --------------- --------------- ---------------
     0.18612E+06                                                                
 -------------------------------------------------------------------------------
 
 SOLVING FOR HEAD 
 INITIAL HNEW IS AN EXACT SOLUTION.

 NO OUTPUT CONTROL FOR STRESS PERIOD   25   TIME STEP  832

 -------------------------------------------------------------------------------
                             SWR1 OUTPUT PRINT TIMES
                        STRESS PERIOD   25   TIME STEP   832
 --------------- --------------- --------------- --------------- ---------------
     0.18624E+06                                                                
 -------------------------------------------------------------------------------
 
 SOLVING FOR HEAD 
 INITIAL HNEW IS AN EXACT SOLUTION.

 NO OUTPUT CONTROL FOR STRESS PERIOD   25   TIME STEP  833

 -------------------------------------------------------------------------------
                             SWR1 OUTPUT PRINT TIMES
                        STRESS PERIOD   25   TIME STEP   833
 --------------- --------------- --------------- --------------- ---------------
     0.18636E+06                                                                
 -------------------------------------------------------------------------------
 
 SOLVING FOR HEAD 
 INITIAL HNEW IS AN EXACT SOLUTION.

 NO OUTPUT CONTROL FOR STRESS PERIOD   25   TIME STEP  834

 -------------------------------------------------------------------------------
                             SWR1 OUTPUT PRINT TIMES
                        STRESS PERIOD   25   TIME STEP   834
 --------------- --------------- --------------- --------------- ---------------
     0.18648E+06                                                                
 -------------------------------------------------------------------------------
 
 SOLVING FOR HEAD 
 INITIAL HNEW IS AN EXACT SOLUTION.

 NO OUTPUT CONTROL FOR STRESS PERIOD   25   TIME STEP  835

 -------------------------------------------------------------------------------
                             SWR1 OUTPUT PRINT TIMES
                        STRESS PERIOD   25   TIME STEP   835
 --------------- --------------- --------------- --------------- ---------------
     0.18660E+06                                                                
 -------------------------------------------------------------------------------
 
 SOLVING FOR HEAD 
 INITIAL HNEW IS AN EXACT SOLUTION.

 NO OUTPUT CONTROL FOR STRESS PERIOD   25   TIME STEP  836

 -------------------------------------------------------------------------------
                             SWR1 OUTPUT PRINT TIMES
                        STRESS PERIOD   25   TIME STEP   836
 --------------- --------------- --------------- --------------- ---------------
     0.18672E+06                                                                
 -------------------------------------------------------------------------------
 
 SOLVING FOR HEAD 
 INITIAL HNEW IS AN EXACT SOLUTION.

 NO OUTPUT CONTROL FOR STRESS PERIOD   25   TIME STEP  837

 -------------------------------------------------------------------------------
                             SWR1 OUTPUT PRINT TIMES
                        STRESS PERIOD   25   TIME STEP   837
 --------------- --------------- --------------- --------------- ---------------
     0.18684E+06                                                                
 -------------------------------------------------------------------------------
 
 SOLVING FOR HEAD 
 INITIAL HNEW IS AN EXACT SOLUTION.

 NO OUTPUT CONTROL FOR STRESS PERIOD   25   TIME STEP  838

 -------------------------------------------------------------------------------
                             SWR1 OUTPUT PRINT TIMES
                        STRESS PERIOD   25   TIME STEP   838
 --------------- --------------- --------------- --------------- ---------------
     0.18696E+06                                                                
 -------------------------------------------------------------------------------
 
 SOLVING FOR HEAD 
 INITIAL HNEW IS AN EXACT SOLUTION.

 NO OUTPUT CONTROL FOR STRESS PERIOD   25   TIME STEP  839

 -------------------------------------------------------------------------------
                             SWR1 OUTPUT PRINT TIMES
                        STRESS PERIOD   25   TIME STEP   839
 --------------- --------------- --------------- --------------- ---------------
     0.18708E+06                                                                
 -------------------------------------------------------------------------------
 
 SOLVING FOR HEAD 
 INITIAL HNEW IS AN EXACT SOLUTION.

 NO OUTPUT CONTROL FOR STRESS PERIOD   25   TIME STEP  840

 -------------------------------------------------------------------------------
                             SWR1 OUTPUT PRINT TIMES
                        STRESS PERIOD   25   TIME STEP   840
 --------------- --------------- --------------- --------------- ---------------
     0.18720E+06                                                                
 -------------------------------------------------------------------------------
 
 SOLVING FOR HEAD 
 INITIAL HNEW IS AN EXACT SOLUTION.

 NO OUTPUT CONTROL FOR STRESS PERIOD   25   TIME STEP  841

 -------------------------------------------------------------------------------
                             SWR1 OUTPUT PRINT TIMES
                        STRESS PERIOD   25   TIME STEP   841
 --------------- --------------- --------------- --------------- ---------------
     0.18732E+06                                                                
 -------------------------------------------------------------------------------
 
 SOLVING FOR HEAD 
 INITIAL HNEW IS AN EXACT SOLUTION.

 NO OUTPUT CONTROL FOR STRESS PERIOD   25   TIME STEP  842

 -------------------------------------------------------------------------------
                             SWR1 OUTPUT PRINT TIMES
                        STRESS PERIOD   25   TIME STEP   842
 --------------- --------------- --------------- --------------- ---------------
     0.18744E+06                                                                
 -------------------------------------------------------------------------------
 
 SOLVING FOR HEAD 
 INITIAL HNEW IS AN EXACT SOLUTION.

 NO OUTPUT CONTROL FOR STRESS PERIOD   25   TIME STEP  843

 -------------------------------------------------------------------------------
                             SWR1 OUTPUT PRINT TIMES
                        STRESS PERIOD   25   TIME STEP   843
 --------------- --------------- --------------- --------------- ---------------
     0.18756E+06                                                                
 -------------------------------------------------------------------------------
 
 SOLVING FOR HEAD 
 INITIAL HNEW IS AN EXACT SOLUTION.

 NO OUTPUT CONTROL FOR STRESS PERIOD   25   TIME STEP  844

 -------------------------------------------------------------------------------
                             SWR1 OUTPUT PRINT TIMES
                        STRESS PERIOD   25   TIME STEP   844
 --------------- --------------- --------------- --------------- ---------------
     0.18768E+06                                                                
 -------------------------------------------------------------------------------
 
 SOLVING FOR HEAD 
 INITIAL HNEW IS AN EXACT SOLUTION.

 NO OUTPUT CONTROL FOR STRESS PERIOD   25   TIME STEP  845

 -------------------------------------------------------------------------------
                             SWR1 OUTPUT PRINT TIMES
                        STRESS PERIOD   25   TIME STEP   845
 --------------- --------------- --------------- --------------- ---------------
     0.18780E+06                                                                
 -------------------------------------------------------------------------------
 
 SOLVING FOR HEAD 
 INITIAL HNEW IS AN EXACT SOLUTION.

 NO OUTPUT CONTROL FOR STRESS PERIOD   25   TIME STEP  846

 -------------------------------------------------------------------------------
                             SWR1 OUTPUT PRINT TIMES
                        STRESS PERIOD   25   TIME STEP   846
 --------------- --------------- --------------- --------------- ---------------
     0.18792E+06                                                                
 -------------------------------------------------------------------------------
 
 SOLVING FOR HEAD 
 INITIAL HNEW IS AN EXACT SOLUTION.

 NO OUTPUT CONTROL FOR STRESS PERIOD   25   TIME STEP  847

 -------------------------------------------------------------------------------
                             SWR1 OUTPUT PRINT TIMES
                        STRESS PERIOD   25   TIME STEP   847
 --------------- --------------- --------------- --------------- ---------------
     0.18804E+06                                                                
 -------------------------------------------------------------------------------
 
 SOLVING FOR HEAD 
 INITIAL HNEW IS AN EXACT SOLUTION.

 NO OUTPUT CONTROL FOR STRESS PERIOD   25   TIME STEP  848

 -------------------------------------------------------------------------------
                             SWR1 OUTPUT PRINT TIMES
                        STRESS PERIOD   25   TIME STEP   848
 --------------- --------------- --------------- --------------- ---------------
     0.18816E+06                                                                
 -------------------------------------------------------------------------------
 
 SOLVING FOR HEAD 
 INITIAL HNEW IS AN EXACT SOLUTION.

 NO OUTPUT CONTROL FOR STRESS PERIOD   25   TIME STEP  849

 -------------------------------------------------------------------------------
                             SWR1 OUTPUT PRINT TIMES
                        STRESS PERIOD   25   TIME STEP   849
 --------------- --------------- --------------- --------------- ---------------
     0.18828E+06                                                                
 -------------------------------------------------------------------------------
 
 SOLVING FOR HEAD 
 INITIAL HNEW IS AN EXACT SOLUTION.

 NO OUTPUT CONTROL FOR STRESS PERIOD   25   TIME STEP  850

 -------------------------------------------------------------------------------
                             SWR1 OUTPUT PRINT TIMES
                        STRESS PERIOD   25   TIME STEP   850
 --------------- --------------- --------------- --------------- ---------------
     0.18840E+06                                                                
 -------------------------------------------------------------------------------
 
 SOLVING FOR HEAD 
 INITIAL HNEW IS AN EXACT SOLUTION.

 NO OUTPUT CONTROL FOR STRESS PERIOD   25   TIME STEP  851

 -------------------------------------------------------------------------------
                             SWR1 OUTPUT PRINT TIMES
                        STRESS PERIOD   25   TIME STEP   851
 --------------- --------------- --------------- --------------- ---------------
     0.18852E+06                                                                
 -------------------------------------------------------------------------------
 
 SOLVING FOR HEAD 
 INITIAL HNEW IS AN EXACT SOLUTION.

 NO OUTPUT CONTROL FOR STRESS PERIOD   25   TIME STEP  852

 -------------------------------------------------------------------------------
                             SWR1 OUTPUT PRINT TIMES
                        STRESS PERIOD   25   TIME STEP   852
 --------------- --------------- --------------- --------------- ---------------
     0.18864E+06                                                                
 -------------------------------------------------------------------------------
 
 SOLVING FOR HEAD 
 INITIAL HNEW IS AN EXACT SOLUTION.

 NO OUTPUT CONTROL FOR STRESS PERIOD   25   TIME STEP  853

 -------------------------------------------------------------------------------
                             SWR1 OUTPUT PRINT TIMES
                        STRESS PERIOD   25   TIME STEP   853
 --------------- --------------- --------------- --------------- ---------------
     0.18876E+06                                                                
 -------------------------------------------------------------------------------
 
 SOLVING FOR HEAD 
 INITIAL HNEW IS AN EXACT SOLUTION.

 NO OUTPUT CONTROL FOR STRESS PERIOD   25   TIME STEP  854

 -------------------------------------------------------------------------------
                             SWR1 OUTPUT PRINT TIMES
                        STRESS PERIOD   25   TIME STEP   854
 --------------- --------------- --------------- --------------- ---------------
     0.18888E+06                                                                
 -------------------------------------------------------------------------------
 
 SOLVING FOR HEAD 
 INITIAL HNEW IS AN EXACT SOLUTION.

 NO OUTPUT CONTROL FOR STRESS PERIOD   25   TIME STEP  855

 -------------------------------------------------------------------------------
                             SWR1 OUTPUT PRINT TIMES
                        STRESS PERIOD   25   TIME STEP   855
 --------------- --------------- --------------- --------------- ---------------
     0.18900E+06                                                                
 -------------------------------------------------------------------------------
 
 SOLVING FOR HEAD 
 INITIAL HNEW IS AN EXACT SOLUTION.

 NO OUTPUT CONTROL FOR STRESS PERIOD   25   TIME STEP  856

 -------------------------------------------------------------------------------
                             SWR1 OUTPUT PRINT TIMES
                        STRESS PERIOD   25   TIME STEP   856
 --------------- --------------- --------------- --------------- ---------------
     0.18912E+06                                                                
 -------------------------------------------------------------------------------
 
 SOLVING FOR HEAD 
 INITIAL HNEW IS AN EXACT SOLUTION.

 NO OUTPUT CONTROL FOR STRESS PERIOD   25   TIME STEP  857

 -------------------------------------------------------------------------------
                             SWR1 OUTPUT PRINT TIMES
                        STRESS PERIOD   25   TIME STEP   857
 --------------- --------------- --------------- --------------- ---------------
     0.18924E+06                                                                
 -------------------------------------------------------------------------------
 
 SOLVING FOR HEAD 
 INITIAL HNEW IS AN EXACT SOLUTION.

 NO OUTPUT CONTROL FOR STRESS PERIOD   25   TIME STEP  858

 -------------------------------------------------------------------------------
                             SWR1 OUTPUT PRINT TIMES
                        STRESS PERIOD   25   TIME STEP   858
 --------------- --------------- --------------- --------------- ---------------
     0.18936E+06                                                                
 -------------------------------------------------------------------------------
 
 SOLVING FOR HEAD 
 INITIAL HNEW IS AN EXACT SOLUTION.

 NO OUTPUT CONTROL FOR STRESS PERIOD   25   TIME STEP  859

 -------------------------------------------------------------------------------
                             SWR1 OUTPUT PRINT TIMES
                        STRESS PERIOD   25   TIME STEP   859
 --------------- --------------- --------------- --------------- ---------------
     0.18948E+06                                                                
 -------------------------------------------------------------------------------
 
 SOLVING FOR HEAD 
 INITIAL HNEW IS AN EXACT SOLUTION.

 NO OUTPUT CONTROL FOR STRESS PERIOD   25   TIME STEP  860

 -------------------------------------------------------------------------------
                             SWR1 OUTPUT PRINT TIMES
                        STRESS PERIOD   25   TIME STEP   860
 --------------- --------------- --------------- --------------- ---------------
     0.18960E+06                                                                
 -------------------------------------------------------------------------------
 
 SOLVING FOR HEAD 
 INITIAL HNEW IS AN EXACT SOLUTION.

 NO OUTPUT CONTROL FOR STRESS PERIOD   25   TIME STEP  861

 -------------------------------------------------------------------------------
                             SWR1 OUTPUT PRINT TIMES
                        STRESS PERIOD   25   TIME STEP   861
 --------------- --------------- --------------- --------------- ---------------
     0.18972E+06                                                                
 -------------------------------------------------------------------------------
 
 SOLVING FOR HEAD 
 INITIAL HNEW IS AN EXACT SOLUTION.

 NO OUTPUT CONTROL FOR STRESS PERIOD   25   TIME STEP  862

 -------------------------------------------------------------------------------
                             SWR1 OUTPUT PRINT TIMES
                        STRESS PERIOD   25   TIME STEP   862
 --------------- --------------- --------------- --------------- ---------------
     0.18984E+06                                                                
 -------------------------------------------------------------------------------
 
 SOLVING FOR HEAD 
 INITIAL HNEW IS AN EXACT SOLUTION.

 NO OUTPUT CONTROL FOR STRESS PERIOD   25   TIME STEP  863

 -------------------------------------------------------------------------------
                             SWR1 OUTPUT PRINT TIMES
                        STRESS PERIOD   25   TIME STEP   863
 --------------- --------------- --------------- --------------- ---------------
     0.18996E+06                                                                
 -------------------------------------------------------------------------------
 
 SOLVING FOR HEAD 
 INITIAL HNEW IS AN EXACT SOLUTION.

 NO OUTPUT CONTROL FOR STRESS PERIOD   25   TIME STEP  864

 -------------------------------------------------------------------------------
                             SWR1 OUTPUT PRINT TIMES
                        STRESS PERIOD   25   TIME STEP   864
 --------------- --------------- --------------- --------------- ---------------
     0.19008E+06                                                                
 -------------------------------------------------------------------------------
 
 SOLVING FOR HEAD 
 INITIAL HNEW IS AN EXACT SOLUTION.

 NO OUTPUT CONTROL FOR STRESS PERIOD   25   TIME STEP  865

 -------------------------------------------------------------------------------
                             SWR1 OUTPUT PRINT TIMES
                        STRESS PERIOD   25   TIME STEP   865
 --------------- --------------- --------------- --------------- ---------------
     0.19020E+06                                                                
 -------------------------------------------------------------------------------
 
 SOLVING FOR HEAD 
 INITIAL HNEW IS AN EXACT SOLUTION.

 NO OUTPUT CONTROL FOR STRESS PERIOD   25   TIME STEP  866

 -------------------------------------------------------------------------------
                             SWR1 OUTPUT PRINT TIMES
                        STRESS PERIOD   25   TIME STEP   866
 --------------- --------------- --------------- --------------- ---------------
     0.19032E+06                                                                
 -------------------------------------------------------------------------------
 
 SOLVING FOR HEAD 
 INITIAL HNEW IS AN EXACT SOLUTION.

 NO OUTPUT CONTROL FOR STRESS PERIOD   25   TIME STEP  867

 -------------------------------------------------------------------------------
                             SWR1 OUTPUT PRINT TIMES
                        STRESS PERIOD   25   TIME STEP   867
 --------------- --------------- --------------- --------------- ---------------
     0.19044E+06                                                                
 -------------------------------------------------------------------------------
 
 SOLVING FOR HEAD 
 INITIAL HNEW IS AN EXACT SOLUTION.

 NO OUTPUT CONTROL FOR STRESS PERIOD   25   TIME STEP  868

 -------------------------------------------------------------------------------
                             SWR1 OUTPUT PRINT TIMES
                        STRESS PERIOD   25   TIME STEP   868
 --------------- --------------- --------------- --------------- ---------------
     0.19056E+06                                                                
 -------------------------------------------------------------------------------
 
 SOLVING FOR HEAD 
 INITIAL HNEW IS AN EXACT SOLUTION.

 NO OUTPUT CONTROL FOR STRESS PERIOD   25   TIME STEP  869

 -------------------------------------------------------------------------------
                             SWR1 OUTPUT PRINT TIMES
                        STRESS PERIOD   25   TIME STEP   869
 --------------- --------------- --------------- --------------- ---------------
     0.19068E+06                                                                
 -------------------------------------------------------------------------------
 
 SOLVING FOR HEAD 
 INITIAL HNEW IS AN EXACT SOLUTION.

 NO OUTPUT CONTROL FOR STRESS PERIOD   25   TIME STEP  870

 -------------------------------------------------------------------------------
                             SWR1 OUTPUT PRINT TIMES
                        STRESS PERIOD   25   TIME STEP   870
 --------------- --------------- --------------- --------------- ---------------
     0.19080E+06                                                                
 -------------------------------------------------------------------------------
 
 SOLVING FOR HEAD 
 INITIAL HNEW IS AN EXACT SOLUTION.

 NO OUTPUT CONTROL FOR STRESS PERIOD   25   TIME STEP  871

 -------------------------------------------------------------------------------
                             SWR1 OUTPUT PRINT TIMES
                        STRESS PERIOD   25   TIME STEP   871
 --------------- --------------- --------------- --------------- ---------------
     0.19092E+06                                                                
 -------------------------------------------------------------------------------
 
 SOLVING FOR HEAD 
 INITIAL HNEW IS AN EXACT SOLUTION.

 NO OUTPUT CONTROL FOR STRESS PERIOD   25   TIME STEP  872

 -------------------------------------------------------------------------------
                             SWR1 OUTPUT PRINT TIMES
                        STRESS PERIOD   25   TIME STEP   872
 --------------- --------------- --------------- --------------- ---------------
     0.19104E+06                                                                
 -------------------------------------------------------------------------------
 
 SOLVING FOR HEAD 
 INITIAL HNEW IS AN EXACT SOLUTION.

 NO OUTPUT CONTROL FOR STRESS PERIOD   25   TIME STEP  873

 -------------------------------------------------------------------------------
                             SWR1 OUTPUT PRINT TIMES
                        STRESS PERIOD   25   TIME STEP   873
 --------------- --------------- --------------- --------------- ---------------
     0.19116E+06                                                                
 -------------------------------------------------------------------------------
 
 SOLVING FOR HEAD 
 INITIAL HNEW IS AN EXACT SOLUTION.

 NO OUTPUT CONTROL FOR STRESS PERIOD   25   TIME STEP  874

 -------------------------------------------------------------------------------
                             SWR1 OUTPUT PRINT TIMES
                        STRESS PERIOD   25   TIME STEP   874
 --------------- --------------- --------------- --------------- ---------------
     0.19128E+06                                                                
 -------------------------------------------------------------------------------
 
 SOLVING FOR HEAD 
 INITIAL HNEW IS AN EXACT SOLUTION.

 NO OUTPUT CONTROL FOR STRESS PERIOD   25   TIME STEP  875

 -------------------------------------------------------------------------------
                             SWR1 OUTPUT PRINT TIMES
                        STRESS PERIOD   25   TIME STEP   875
 --------------- --------------- --------------- --------------- ---------------
     0.19140E+06                                                                
 -------------------------------------------------------------------------------
 
 SOLVING FOR HEAD 
 INITIAL HNEW IS AN EXACT SOLUTION.

 NO OUTPUT CONTROL FOR STRESS PERIOD   25   TIME STEP  876

 -------------------------------------------------------------------------------
                             SWR1 OUTPUT PRINT TIMES
                        STRESS PERIOD   25   TIME STEP   876
 --------------- --------------- --------------- --------------- ---------------
     0.19152E+06                                                                
 -------------------------------------------------------------------------------
 
 SOLVING FOR HEAD 
 INITIAL HNEW IS AN EXACT SOLUTION.

 NO OUTPUT CONTROL FOR STRESS PERIOD   25   TIME STEP  877

 -------------------------------------------------------------------------------
                             SWR1 OUTPUT PRINT TIMES
                        STRESS PERIOD   25   TIME STEP   877
 --------------- --------------- --------------- --------------- ---------------
     0.19164E+06                                                                
 -------------------------------------------------------------------------------
 
 SOLVING FOR HEAD 
 INITIAL HNEW IS AN EXACT SOLUTION.

 NO OUTPUT CONTROL FOR STRESS PERIOD   25   TIME STEP  878

 -------------------------------------------------------------------------------
                             SWR1 OUTPUT PRINT TIMES
                        STRESS PERIOD   25   TIME STEP   878
 --------------- --------------- --------------- --------------- ---------------
     0.19176E+06                                                                
 -------------------------------------------------------------------------------
 
 SOLVING FOR HEAD 
 INITIAL HNEW IS AN EXACT SOLUTION.

 NO OUTPUT CONTROL FOR STRESS PERIOD   25   TIME STEP  879

 -------------------------------------------------------------------------------
                             SWR1 OUTPUT PRINT TIMES
                        STRESS PERIOD   25   TIME STEP   879
 --------------- --------------- --------------- --------------- ---------------
     0.19188E+06                                                                
 -------------------------------------------------------------------------------
 
 SOLVING FOR HEAD 
 INITIAL HNEW IS AN EXACT SOLUTION.

 NO OUTPUT CONTROL FOR STRESS PERIOD   25   TIME STEP  880

 -------------------------------------------------------------------------------
                             SWR1 OUTPUT PRINT TIMES
                        STRESS PERIOD   25   TIME STEP   880
 --------------- --------------- --------------- --------------- ---------------
     0.19200E+06                                                                
 -------------------------------------------------------------------------------
 
 SOLVING FOR HEAD 
 INITIAL HNEW IS AN EXACT SOLUTION.

 NO OUTPUT CONTROL FOR STRESS PERIOD   25   TIME STEP  881

 -------------------------------------------------------------------------------
                             SWR1 OUTPUT PRINT TIMES
                        STRESS PERIOD   25   TIME STEP   881
 --------------- --------------- --------------- --------------- ---------------
     0.19212E+06                                                                
 -------------------------------------------------------------------------------
 
 SOLVING FOR HEAD 
 INITIAL HNEW IS AN EXACT SOLUTION.

 NO OUTPUT CONTROL FOR STRESS PERIOD   25   TIME STEP  882

 -------------------------------------------------------------------------------
                             SWR1 OUTPUT PRINT TIMES
                        STRESS PERIOD   25   TIME STEP   882
 --------------- --------------- --------------- --------------- ---------------
     0.19224E+06                                                                
 -------------------------------------------------------------------------------
 
 SOLVING FOR HEAD 
 INITIAL HNEW IS AN EXACT SOLUTION.

 NO OUTPUT CONTROL FOR STRESS PERIOD   25   TIME STEP  883

 -------------------------------------------------------------------------------
                             SWR1 OUTPUT PRINT TIMES
                        STRESS PERIOD   25   TIME STEP   883
 --------------- --------------- --------------- --------------- ---------------
     0.19236E+06                                                                
 -------------------------------------------------------------------------------
 
 SOLVING FOR HEAD 
 INITIAL HNEW IS AN EXACT SOLUTION.

 NO OUTPUT CONTROL FOR STRESS PERIOD   25   TIME STEP  884

 -------------------------------------------------------------------------------
                             SWR1 OUTPUT PRINT TIMES
                        STRESS PERIOD   25   TIME STEP   884
 --------------- --------------- --------------- --------------- ---------------
     0.19248E+06                                                                
 -------------------------------------------------------------------------------
 
 SOLVING FOR HEAD 
 INITIAL HNEW IS AN EXACT SOLUTION.

 NO OUTPUT CONTROL FOR STRESS PERIOD   25   TIME STEP  885

 -------------------------------------------------------------------------------
                             SWR1 OUTPUT PRINT TIMES
                        STRESS PERIOD   25   TIME STEP   885
 --------------- --------------- --------------- --------------- ---------------
     0.19260E+06                                                                
 -------------------------------------------------------------------------------
 
 SOLVING FOR HEAD 
 INITIAL HNEW IS AN EXACT SOLUTION.

 NO OUTPUT CONTROL FOR STRESS PERIOD   25   TIME STEP  886

 -------------------------------------------------------------------------------
                             SWR1 OUTPUT PRINT TIMES
                        STRESS PERIOD   25   TIME STEP   886
 --------------- --------------- --------------- --------------- ---------------
     0.19272E+06                                                                
 -------------------------------------------------------------------------------
 
 SOLVING FOR HEAD 
 INITIAL HNEW IS AN EXACT SOLUTION.

 NO OUTPUT CONTROL FOR STRESS PERIOD   25   TIME STEP  887

 -------------------------------------------------------------------------------
                             SWR1 OUTPUT PRINT TIMES
                        STRESS PERIOD   25   TIME STEP   887
 --------------- --------------- --------------- --------------- ---------------
     0.19284E+06                                                                
 -------------------------------------------------------------------------------
 
 SOLVING FOR HEAD 
 INITIAL HNEW IS AN EXACT SOLUTION.

 NO OUTPUT CONTROL FOR STRESS PERIOD   25   TIME STEP  888

 -------------------------------------------------------------------------------
                             SWR1 OUTPUT PRINT TIMES
                        STRESS PERIOD   25   TIME STEP   888
 --------------- --------------- --------------- --------------- ---------------
     0.19296E+06                                                                
 -------------------------------------------------------------------------------
 
 SOLVING FOR HEAD 
 INITIAL HNEW IS AN EXACT SOLUTION.

 NO OUTPUT CONTROL FOR STRESS PERIOD   25   TIME STEP  889

 -------------------------------------------------------------------------------
                             SWR1 OUTPUT PRINT TIMES
                        STRESS PERIOD   25   TIME STEP   889
 --------------- --------------- --------------- --------------- ---------------
     0.19308E+06                                                                
 -------------------------------------------------------------------------------
 
 SOLVING FOR HEAD 
 INITIAL HNEW IS AN EXACT SOLUTION.

 NO OUTPUT CONTROL FOR STRESS PERIOD   25   TIME STEP  890

 -------------------------------------------------------------------------------
                             SWR1 OUTPUT PRINT TIMES
                        STRESS PERIOD   25   TIME STEP   890
 --------------- --------------- --------------- --------------- ---------------
     0.19320E+06                                                                
 -------------------------------------------------------------------------------
 
 SOLVING FOR HEAD 
 INITIAL HNEW IS AN EXACT SOLUTION.

 NO OUTPUT CONTROL FOR STRESS PERIOD   25   TIME STEP  891

 -------------------------------------------------------------------------------
                             SWR1 OUTPUT PRINT TIMES
                        STRESS PERIOD   25   TIME STEP   891
 --------------- --------------- --------------- --------------- ---------------
     0.19332E+06                                                                
 -------------------------------------------------------------------------------
 
 SOLVING FOR HEAD 
 INITIAL HNEW IS AN EXACT SOLUTION.

 NO OUTPUT CONTROL FOR STRESS PERIOD   25   TIME STEP  892

 -------------------------------------------------------------------------------
                             SWR1 OUTPUT PRINT TIMES
                        STRESS PERIOD   25   TIME STEP   892
 --------------- --------------- --------------- --------------- ---------------
     0.19344E+06                                                                
 -------------------------------------------------------------------------------
 
 SOLVING FOR HEAD 
 INITIAL HNEW IS AN EXACT SOLUTION.

 NO OUTPUT CONTROL FOR STRESS PERIOD   25   TIME STEP  893

 -------------------------------------------------------------------------------
                             SWR1 OUTPUT PRINT TIMES
                        STRESS PERIOD   25   TIME STEP   893
 --------------- --------------- --------------- --------------- ---------------
     0.19356E+06                                                                
 -------------------------------------------------------------------------------
 
 SOLVING FOR HEAD 
 INITIAL HNEW IS AN EXACT SOLUTION.

 NO OUTPUT CONTROL FOR STRESS PERIOD   25   TIME STEP  894

 -------------------------------------------------------------------------------
                             SWR1 OUTPUT PRINT TIMES
                        STRESS PERIOD   25   TIME STEP   894
 --------------- --------------- --------------- --------------- ---------------
     0.19368E+06                                                                
 -------------------------------------------------------------------------------
 
 SOLVING FOR HEAD 
 INITIAL HNEW IS AN EXACT SOLUTION.

 NO OUTPUT CONTROL FOR STRESS PERIOD   25   TIME STEP  895

 -------------------------------------------------------------------------------
                             SWR1 OUTPUT PRINT TIMES
                        STRESS PERIOD   25   TIME STEP   895
 --------------- --------------- --------------- --------------- ---------------
     0.19380E+06                                                                
 -------------------------------------------------------------------------------
 
 SOLVING FOR HEAD 
 INITIAL HNEW IS AN EXACT SOLUTION.

 NO OUTPUT CONTROL FOR STRESS PERIOD   25   TIME STEP  896

 -------------------------------------------------------------------------------
                             SWR1 OUTPUT PRINT TIMES
                        STRESS PERIOD   25   TIME STEP   896
 --------------- --------------- --------------- --------------- ---------------
     0.19392E+06                                                                
 -------------------------------------------------------------------------------
 
 SOLVING FOR HEAD 
 INITIAL HNEW IS AN EXACT SOLUTION.

 NO OUTPUT CONTROL FOR STRESS PERIOD   25   TIME STEP  897

 -------------------------------------------------------------------------------
                             SWR1 OUTPUT PRINT TIMES
                        STRESS PERIOD   25   TIME STEP   897
 --------------- --------------- --------------- --------------- ---------------
     0.19404E+06                                                                
 -------------------------------------------------------------------------------
 
 SOLVING FOR HEAD 
 INITIAL HNEW IS AN EXACT SOLUTION.

 NO OUTPUT CONTROL FOR STRESS PERIOD   25   TIME STEP  898

 -------------------------------------------------------------------------------
                             SWR1 OUTPUT PRINT TIMES
                        STRESS PERIOD   25   TIME STEP   898
 --------------- --------------- --------------- --------------- ---------------
     0.19416E+06                                                                
 -------------------------------------------------------------------------------
 
 SOLVING FOR HEAD 
 INITIAL HNEW IS AN EXACT SOLUTION.

 NO OUTPUT CONTROL FOR STRESS PERIOD   25   TIME STEP  899

 -------------------------------------------------------------------------------
                             SWR1 OUTPUT PRINT TIMES
                        STRESS PERIOD   25   TIME STEP   899
 --------------- --------------- --------------- --------------- ---------------
     0.19428E+06                                                                
 -------------------------------------------------------------------------------
 
 SOLVING FOR HEAD 
 INITIAL HNEW IS AN EXACT SOLUTION.

 NO OUTPUT CONTROL FOR STRESS PERIOD   25   TIME STEP  900

 -------------------------------------------------------------------------------
                             SWR1 OUTPUT PRINT TIMES
                        STRESS PERIOD   25   TIME STEP   900
 --------------- --------------- --------------- --------------- ---------------
     0.19440E+06                                                                
 -------------------------------------------------------------------------------
 
 SOLVING FOR HEAD 
 INITIAL HNEW IS AN EXACT SOLUTION.

 NO OUTPUT CONTROL FOR STRESS PERIOD   25   TIME STEP  901

 -------------------------------------------------------------------------------
                             SWR1 OUTPUT PRINT TIMES
                        STRESS PERIOD   25   TIME STEP   901
 --------------- --------------- --------------- --------------- ---------------
     0.19452E+06                                                                
 -------------------------------------------------------------------------------
 
 SOLVING FOR HEAD 
 INITIAL HNEW IS AN EXACT SOLUTION.

 NO OUTPUT CONTROL FOR STRESS PERIOD   25   TIME STEP  902

 -------------------------------------------------------------------------------
                             SWR1 OUTPUT PRINT TIMES
                        STRESS PERIOD   25   TIME STEP   902
 --------------- --------------- --------------- --------------- ---------------
     0.19464E+06                                                                
 -------------------------------------------------------------------------------
 
 SOLVING FOR HEAD 
 INITIAL HNEW IS AN EXACT SOLUTION.

 NO OUTPUT CONTROL FOR STRESS PERIOD   25   TIME STEP  903

 -------------------------------------------------------------------------------
                             SWR1 OUTPUT PRINT TIMES
                        STRESS PERIOD   25   TIME STEP   903
 --------------- --------------- --------------- --------------- ---------------
     0.19476E+06                                                                
 -------------------------------------------------------------------------------
 
 SOLVING FOR HEAD 
 INITIAL HNEW IS AN EXACT SOLUTION.

 NO OUTPUT CONTROL FOR STRESS PERIOD   25   TIME STEP  904

 -------------------------------------------------------------------------------
                             SWR1 OUTPUT PRINT TIMES
                        STRESS PERIOD   25   TIME STEP   904
 --------------- --------------- --------------- --------------- ---------------
     0.19488E+06                                                                
 -------------------------------------------------------------------------------
 
 SOLVING FOR HEAD 
 INITIAL HNEW IS AN EXACT SOLUTION.

 NO OUTPUT CONTROL FOR STRESS PERIOD   25   TIME STEP  905

 -------------------------------------------------------------------------------
                             SWR1 OUTPUT PRINT TIMES
                        STRESS PERIOD   25   TIME STEP   905
 --------------- --------------- --------------- --------------- ---------------
     0.19500E+06                                                                
 -------------------------------------------------------------------------------
 
 SOLVING FOR HEAD 
 INITIAL HNEW IS AN EXACT SOLUTION.

 NO OUTPUT CONTROL FOR STRESS PERIOD   25   TIME STEP  906

 -------------------------------------------------------------------------------
                             SWR1 OUTPUT PRINT TIMES
                        STRESS PERIOD   25   TIME STEP   906
 --------------- --------------- --------------- --------------- ---------------
     0.19512E+06                                                                
 -------------------------------------------------------------------------------
 
 SOLVING FOR HEAD 
 INITIAL HNEW IS AN EXACT SOLUTION.

 NO OUTPUT CONTROL FOR STRESS PERIOD   25   TIME STEP  907

 -------------------------------------------------------------------------------
                             SWR1 OUTPUT PRINT TIMES
                        STRESS PERIOD   25   TIME STEP   907
 --------------- --------------- --------------- --------------- ---------------
     0.19524E+06                                                                
 -------------------------------------------------------------------------------
 
 SOLVING FOR HEAD 
 INITIAL HNEW IS AN EXACT SOLUTION.

 NO OUTPUT CONTROL FOR STRESS PERIOD   25   TIME STEP  908

 -------------------------------------------------------------------------------
                             SWR1 OUTPUT PRINT TIMES
                        STRESS PERIOD   25   TIME STEP   908
 --------------- --------------- --------------- --------------- ---------------
     0.19536E+06                                                                
 -------------------------------------------------------------------------------
 
 SOLVING FOR HEAD 
 INITIAL HNEW IS AN EXACT SOLUTION.

 NO OUTPUT CONTROL FOR STRESS PERIOD   25   TIME STEP  909

 -------------------------------------------------------------------------------
                             SWR1 OUTPUT PRINT TIMES
                        STRESS PERIOD   25   TIME STEP   909
 --------------- --------------- --------------- --------------- ---------------
     0.19548E+06                                                                
 -------------------------------------------------------------------------------
 
 SOLVING FOR HEAD 
 INITIAL HNEW IS AN EXACT SOLUTION.

 NO OUTPUT CONTROL FOR STRESS PERIOD   25   TIME STEP  910

 -------------------------------------------------------------------------------
                             SWR1 OUTPUT PRINT TIMES
                        STRESS PERIOD   25   TIME STEP   910
 --------------- --------------- --------------- --------------- ---------------
     0.19560E+06                                                                
 -------------------------------------------------------------------------------
 
 SOLVING FOR HEAD 
 INITIAL HNEW IS AN EXACT SOLUTION.

 NO OUTPUT CONTROL FOR STRESS PERIOD   25   TIME STEP  911

 -------------------------------------------------------------------------------
                             SWR1 OUTPUT PRINT TIMES
                        STRESS PERIOD   25   TIME STEP   911
 --------------- --------------- --------------- --------------- ---------------
     0.19572E+06                                                                
 -------------------------------------------------------------------------------
 
 SOLVING FOR HEAD 
 INITIAL HNEW IS AN EXACT SOLUTION.

 NO OUTPUT CONTROL FOR STRESS PERIOD   25   TIME STEP  912

 -------------------------------------------------------------------------------
                             SWR1 OUTPUT PRINT TIMES
                        STRESS PERIOD   25   TIME STEP   912
 --------------- --------------- --------------- --------------- ---------------
     0.19584E+06                                                                
 -------------------------------------------------------------------------------
 
 SOLVING FOR HEAD 
 INITIAL HNEW IS AN EXACT SOLUTION.

 NO OUTPUT CONTROL FOR STRESS PERIOD   25   TIME STEP  913

 -------------------------------------------------------------------------------
                             SWR1 OUTPUT PRINT TIMES
                        STRESS PERIOD   25   TIME STEP   913
 --------------- --------------- --------------- --------------- ---------------
     0.19596E+06                                                                
 -------------------------------------------------------------------------------
 
 SOLVING FOR HEAD 
 INITIAL HNEW IS AN EXACT SOLUTION.

 NO OUTPUT CONTROL FOR STRESS PERIOD   25   TIME STEP  914

 -------------------------------------------------------------------------------
                             SWR1 OUTPUT PRINT TIMES
                        STRESS PERIOD   25   TIME STEP   914
 --------------- --------------- --------------- --------------- ---------------
     0.19608E+06                                                                
 -------------------------------------------------------------------------------
 
 SOLVING FOR HEAD 
 INITIAL HNEW IS AN EXACT SOLUTION.

 NO OUTPUT CONTROL FOR STRESS PERIOD   25   TIME STEP  915

 -------------------------------------------------------------------------------
                             SWR1 OUTPUT PRINT TIMES
                        STRESS PERIOD   25   TIME STEP   915
 --------------- --------------- --------------- --------------- ---------------
     0.19620E+06                                                                
 -------------------------------------------------------------------------------
 
 SOLVING FOR HEAD 
 INITIAL HNEW IS AN EXACT SOLUTION.

 NO OUTPUT CONTROL FOR STRESS PERIOD   25   TIME STEP  916

 -------------------------------------------------------------------------------
                             SWR1 OUTPUT PRINT TIMES
                        STRESS PERIOD   25   TIME STEP   916
 --------------- --------------- --------------- --------------- ---------------
     0.19632E+06                                                                
 -------------------------------------------------------------------------------
 
 SOLVING FOR HEAD 
 INITIAL HNEW IS AN EXACT SOLUTION.

 NO OUTPUT CONTROL FOR STRESS PERIOD   25   TIME STEP  917

 -------------------------------------------------------------------------------
                             SWR1 OUTPUT PRINT TIMES
                        STRESS PERIOD   25   TIME STEP   917
 --------------- --------------- --------------- --------------- ---------------
     0.19644E+06                                                                
 -------------------------------------------------------------------------------
 
 SOLVING FOR HEAD 
 INITIAL HNEW IS AN EXACT SOLUTION.

 NO OUTPUT CONTROL FOR STRESS PERIOD   25   TIME STEP  918

 -------------------------------------------------------------------------------
                             SWR1 OUTPUT PRINT TIMES
                        STRESS PERIOD   25   TIME STEP   918
 --------------- --------------- --------------- --------------- ---------------
     0.19656E+06                                                                
 -------------------------------------------------------------------------------
 
 SOLVING FOR HEAD 
 INITIAL HNEW IS AN EXACT SOLUTION.

 NO OUTPUT CONTROL FOR STRESS PERIOD   25   TIME STEP  919

 -------------------------------------------------------------------------------
                             SWR1 OUTPUT PRINT TIMES
                        STRESS PERIOD   25   TIME STEP   919
 --------------- --------------- --------------- --------------- ---------------
     0.19668E+06                                                                
 -------------------------------------------------------------------------------
 
 SOLVING FOR HEAD 
 INITIAL HNEW IS AN EXACT SOLUTION.

 NO OUTPUT CONTROL FOR STRESS PERIOD   25   TIME STEP  920

 -------------------------------------------------------------------------------
                             SWR1 OUTPUT PRINT TIMES
                        STRESS PERIOD   25   TIME STEP   920
 --------------- --------------- --------------- --------------- ---------------
     0.19680E+06                                                                
 -------------------------------------------------------------------------------
 
 SOLVING FOR HEAD 
 INITIAL HNEW IS AN EXACT SOLUTION.

 NO OUTPUT CONTROL FOR STRESS PERIOD   25   TIME STEP  921

 -------------------------------------------------------------------------------
                             SWR1 OUTPUT PRINT TIMES
                        STRESS PERIOD   25   TIME STEP   921
 --------------- --------------- --------------- --------------- ---------------
     0.19692E+06                                                                
 -------------------------------------------------------------------------------
 
 SOLVING FOR HEAD 
 INITIAL HNEW IS AN EXACT SOLUTION.

 NO OUTPUT CONTROL FOR STRESS PERIOD   25   TIME STEP  922

 -------------------------------------------------------------------------------
                             SWR1 OUTPUT PRINT TIMES
                        STRESS PERIOD   25   TIME STEP   922
 --------------- --------------- --------------- --------------- ---------------
     0.19704E+06                                                                
 -------------------------------------------------------------------------------
 
 SOLVING FOR HEAD 
 INITIAL HNEW IS AN EXACT SOLUTION.

 NO OUTPUT CONTROL FOR STRESS PERIOD   25   TIME STEP  923

 -------------------------------------------------------------------------------
                             SWR1 OUTPUT PRINT TIMES
                        STRESS PERIOD   25   TIME STEP   923
 --------------- --------------- --------------- --------------- ---------------
     0.19716E+06                                                                
 -------------------------------------------------------------------------------
 
 SOLVING FOR HEAD 
 INITIAL HNEW IS AN EXACT SOLUTION.

 NO OUTPUT CONTROL FOR STRESS PERIOD   25   TIME STEP  924

 -------------------------------------------------------------------------------
                             SWR1 OUTPUT PRINT TIMES
                        STRESS PERIOD   25   TIME STEP   924
 --------------- --------------- --------------- --------------- ---------------
     0.19728E+06                                                                
 -------------------------------------------------------------------------------
 
 SOLVING FOR HEAD 
 INITIAL HNEW IS AN EXACT SOLUTION.

 NO OUTPUT CONTROL FOR STRESS PERIOD   25   TIME STEP  925

 -------------------------------------------------------------------------------
                             SWR1 OUTPUT PRINT TIMES
                        STRESS PERIOD   25   TIME STEP   925
 --------------- --------------- --------------- --------------- ---------------
     0.19740E+06                                                                
 -------------------------------------------------------------------------------
 
 SOLVING FOR HEAD 
 INITIAL HNEW IS AN EXACT SOLUTION.

 NO OUTPUT CONTROL FOR STRESS PERIOD   25   TIME STEP  926

 -------------------------------------------------------------------------------
                             SWR1 OUTPUT PRINT TIMES
                        STRESS PERIOD   25   TIME STEP   926
 --------------- --------------- --------------- --------------- ---------------
     0.19752E+06                                                                
 -------------------------------------------------------------------------------
 
 SOLVING FOR HEAD 
 INITIAL HNEW IS AN EXACT SOLUTION.

 NO OUTPUT CONTROL FOR STRESS PERIOD   25   TIME STEP  927

 -------------------------------------------------------------------------------
                             SWR1 OUTPUT PRINT TIMES
                        STRESS PERIOD   25   TIME STEP   927
 --------------- --------------- --------------- --------------- ---------------
     0.19764E+06                                                                
 -------------------------------------------------------------------------------
 
 SOLVING FOR HEAD 
 INITIAL HNEW IS AN EXACT SOLUTION.

 NO OUTPUT CONTROL FOR STRESS PERIOD   25   TIME STEP  928

 -------------------------------------------------------------------------------
                             SWR1 OUTPUT PRINT TIMES
                        STRESS PERIOD   25   TIME STEP   928
 --------------- --------------- --------------- --------------- ---------------
     0.19776E+06                                                                
 -------------------------------------------------------------------------------
 
 SOLVING FOR HEAD 
 INITIAL HNEW IS AN EXACT SOLUTION.

 NO OUTPUT CONTROL FOR STRESS PERIOD   25   TIME STEP  929

 -------------------------------------------------------------------------------
                             SWR1 OUTPUT PRINT TIMES
                        STRESS PERIOD   25   TIME STEP   929
 --------------- --------------- --------------- --------------- ---------------
     0.19788E+06                                                                
 -------------------------------------------------------------------------------
 
 SOLVING FOR HEAD 
 INITIAL HNEW IS AN EXACT SOLUTION.

 NO OUTPUT CONTROL FOR STRESS PERIOD   25   TIME STEP  930

 -------------------------------------------------------------------------------
                             SWR1 OUTPUT PRINT TIMES
                        STRESS PERIOD   25   TIME STEP   930
 --------------- --------------- --------------- --------------- ---------------
     0.19800E+06                                                                
 -------------------------------------------------------------------------------
 
 SOLVING FOR HEAD 
 INITIAL HNEW IS AN EXACT SOLUTION.

 NO OUTPUT CONTROL FOR STRESS PERIOD   25   TIME STEP  931

 -------------------------------------------------------------------------------
                             SWR1 OUTPUT PRINT TIMES
                        STRESS PERIOD   25   TIME STEP   931
 --------------- --------------- --------------- --------------- ---------------
     0.19812E+06                                                                
 -------------------------------------------------------------------------------
 
 SOLVING FOR HEAD 
 INITIAL HNEW IS AN EXACT SOLUTION.

 NO OUTPUT CONTROL FOR STRESS PERIOD   25   TIME STEP  932

 -------------------------------------------------------------------------------
                             SWR1 OUTPUT PRINT TIMES
                        STRESS PERIOD   25   TIME STEP   932
 --------------- --------------- --------------- --------------- ---------------
     0.19824E+06                                                                
 -------------------------------------------------------------------------------
 
 SOLVING FOR HEAD 
 INITIAL HNEW IS AN EXACT SOLUTION.

 NO OUTPUT CONTROL FOR STRESS PERIOD   25   TIME STEP  933

 -------------------------------------------------------------------------------
                             SWR1 OUTPUT PRINT TIMES
                        STRESS PERIOD   25   TIME STEP   933
 --------------- --------------- --------------- --------------- ---------------
     0.19836E+06                                                                
 -------------------------------------------------------------------------------
 
 SOLVING FOR HEAD 
 INITIAL HNEW IS AN EXACT SOLUTION.

 NO OUTPUT CONTROL FOR STRESS PERIOD   25   TIME STEP  934

 -------------------------------------------------------------------------------
                             SWR1 OUTPUT PRINT TIMES
                        STRESS PERIOD   25   TIME STEP   934
 --------------- --------------- --------------- --------------- ---------------
     0.19848E+06                                                                
 -------------------------------------------------------------------------------
 
 SOLVING FOR HEAD 
 INITIAL HNEW IS AN EXACT SOLUTION.

 NO OUTPUT CONTROL FOR STRESS PERIOD   25   TIME STEP  935

 -------------------------------------------------------------------------------
                             SWR1 OUTPUT PRINT TIMES
                        STRESS PERIOD   25   TIME STEP   935
 --------------- --------------- --------------- --------------- ---------------
     0.19860E+06                                                                
 -------------------------------------------------------------------------------
 
 SOLVING FOR HEAD 
 INITIAL HNEW IS AN EXACT SOLUTION.

 NO OUTPUT CONTROL FOR STRESS PERIOD   25   TIME STEP  936

 -------------------------------------------------------------------------------
                             SWR1 OUTPUT PRINT TIMES
                        STRESS PERIOD   25   TIME STEP   936
 --------------- --------------- --------------- --------------- ---------------
     0.19872E+06                                                                
 -------------------------------------------------------------------------------
 
 SOLVING FOR HEAD 
 INITIAL HNEW IS AN EXACT SOLUTION.

 NO OUTPUT CONTROL FOR STRESS PERIOD   25   TIME STEP  937

 -------------------------------------------------------------------------------
                             SWR1 OUTPUT PRINT TIMES
                        STRESS PERIOD   25   TIME STEP   937
 --------------- --------------- --------------- --------------- ---------------
     0.19884E+06                                                                
 -------------------------------------------------------------------------------
 
 SOLVING FOR HEAD 
 INITIAL HNEW IS AN EXACT SOLUTION.

 NO OUTPUT CONTROL FOR STRESS PERIOD   25   TIME STEP  938

 -------------------------------------------------------------------------------
                             SWR1 OUTPUT PRINT TIMES
                        STRESS PERIOD   25   TIME STEP   938
 --------------- --------------- --------------- --------------- ---------------
     0.19896E+06                                                                
 -------------------------------------------------------------------------------
 
 SOLVING FOR HEAD 
 INITIAL HNEW IS AN EXACT SOLUTION.

 NO OUTPUT CONTROL FOR STRESS PERIOD   25   TIME STEP  939

 -------------------------------------------------------------------------------
                             SWR1 OUTPUT PRINT TIMES
                        STRESS PERIOD   25   TIME STEP   939
 --------------- --------------- --------------- --------------- ---------------
     0.19908E+06                                                                
 -------------------------------------------------------------------------------
 
 SOLVING FOR HEAD 
 INITIAL HNEW IS AN EXACT SOLUTION.

 NO OUTPUT CONTROL FOR STRESS PERIOD   25   TIME STEP  940

 -------------------------------------------------------------------------------
                             SWR1 OUTPUT PRINT TIMES
                        STRESS PERIOD   25   TIME STEP   940
 --------------- --------------- --------------- --------------- ---------------
     0.19920E+06                                                                
 -------------------------------------------------------------------------------
 
 SOLVING FOR HEAD 
 INITIAL HNEW IS AN EXACT SOLUTION.

 NO OUTPUT CONTROL FOR STRESS PERIOD   25   TIME STEP  941

 -------------------------------------------------------------------------------
                             SWR1 OUTPUT PRINT TIMES
                        STRESS PERIOD   25   TIME STEP   941
 --------------- --------------- --------------- --------------- ---------------
     0.19932E+06                                                                
 -------------------------------------------------------------------------------
 
 SOLVING FOR HEAD 
 INITIAL HNEW IS AN EXACT SOLUTION.

 NO OUTPUT CONTROL FOR STRESS PERIOD   25   TIME STEP  942

 -------------------------------------------------------------------------------
                             SWR1 OUTPUT PRINT TIMES
                        STRESS PERIOD   25   TIME STEP   942
 --------------- --------------- --------------- --------------- ---------------
     0.19944E+06                                                                
 -------------------------------------------------------------------------------
 
 SOLVING FOR HEAD 
 INITIAL HNEW IS AN EXACT SOLUTION.

 NO OUTPUT CONTROL FOR STRESS PERIOD   25   TIME STEP  943

 -------------------------------------------------------------------------------
                             SWR1 OUTPUT PRINT TIMES
                        STRESS PERIOD   25   TIME STEP   943
 --------------- --------------- --------------- --------------- ---------------
     0.19956E+06                                                                
 -------------------------------------------------------------------------------
 
 SOLVING FOR HEAD 
 INITIAL HNEW IS AN EXACT SOLUTION.

 NO OUTPUT CONTROL FOR STRESS PERIOD   25   TIME STEP  944

 -------------------------------------------------------------------------------
                             SWR1 OUTPUT PRINT TIMES
                        STRESS PERIOD   25   TIME STEP   944
 --------------- --------------- --------------- --------------- ---------------
     0.19968E+06                                                                
 -------------------------------------------------------------------------------
 
 SOLVING FOR HEAD 
 INITIAL HNEW IS AN EXACT SOLUTION.

 NO OUTPUT CONTROL FOR STRESS PERIOD   25   TIME STEP  945

 -------------------------------------------------------------------------------
                             SWR1 OUTPUT PRINT TIMES
                        STRESS PERIOD   25   TIME STEP   945
 --------------- --------------- --------------- --------------- ---------------
     0.19980E+06                                                                
 -------------------------------------------------------------------------------
 
 SOLVING FOR HEAD 
 INITIAL HNEW IS AN EXACT SOLUTION.

 NO OUTPUT CONTROL FOR STRESS PERIOD   25   TIME STEP  946

 -------------------------------------------------------------------------------
                             SWR1 OUTPUT PRINT TIMES
                        STRESS PERIOD   25   TIME STEP   946
 --------------- --------------- --------------- --------------- ---------------
     0.19992E+06                                                                
 -------------------------------------------------------------------------------
 
 SOLVING FOR HEAD 
 INITIAL HNEW IS AN EXACT SOLUTION.

 NO OUTPUT CONTROL FOR STRESS PERIOD   25   TIME STEP  947

 -------------------------------------------------------------------------------
                             SWR1 OUTPUT PRINT TIMES
                        STRESS PERIOD   25   TIME STEP   947
 --------------- --------------- --------------- --------------- ---------------
     0.20004E+06                                                                
 -------------------------------------------------------------------------------
 
 SOLVING FOR HEAD 
 INITIAL HNEW IS AN EXACT SOLUTION.

 NO OUTPUT CONTROL FOR STRESS PERIOD   25   TIME STEP  948

 -------------------------------------------------------------------------------
                             SWR1 OUTPUT PRINT TIMES
                        STRESS PERIOD   25   TIME STEP   948
 --------------- --------------- --------------- --------------- ---------------
     0.20016E+06                                                                
 -------------------------------------------------------------------------------
 
 SOLVING FOR HEAD 
 INITIAL HNEW IS AN EXACT SOLUTION.

 NO OUTPUT CONTROL FOR STRESS PERIOD   25   TIME STEP  949

 -------------------------------------------------------------------------------
                             SWR1 OUTPUT PRINT TIMES
                        STRESS PERIOD   25   TIME STEP   949
 --------------- --------------- --------------- --------------- ---------------
     0.20028E+06                                                                
 -------------------------------------------------------------------------------
 
 SOLVING FOR HEAD 
 INITIAL HNEW IS AN EXACT SOLUTION.

 NO OUTPUT CONTROL FOR STRESS PERIOD   25   TIME STEP  950

 -------------------------------------------------------------------------------
                             SWR1 OUTPUT PRINT TIMES
                        STRESS PERIOD   25   TIME STEP   950
 --------------- --------------- --------------- --------------- ---------------
     0.20040E+06                                                                
 -------------------------------------------------------------------------------
 
 SOLVING FOR HEAD 
 INITIAL HNEW IS AN EXACT SOLUTION.

 NO OUTPUT CONTROL FOR STRESS PERIOD   25   TIME STEP  951

 -------------------------------------------------------------------------------
                             SWR1 OUTPUT PRINT TIMES
                        STRESS PERIOD   25   TIME STEP   951
 --------------- --------------- --------------- --------------- ---------------
     0.20052E+06                                                                
 -------------------------------------------------------------------------------
 
 SOLVING FOR HEAD 
 INITIAL HNEW IS AN EXACT SOLUTION.

 NO OUTPUT CONTROL FOR STRESS PERIOD   25   TIME STEP  952

 -------------------------------------------------------------------------------
                             SWR1 OUTPUT PRINT TIMES
                        STRESS PERIOD   25   TIME STEP   952
 --------------- --------------- --------------- --------------- ---------------
     0.20064E+06                                                                
 -------------------------------------------------------------------------------
 
 SOLVING FOR HEAD 
 INITIAL HNEW IS AN EXACT SOLUTION.

 NO OUTPUT CONTROL FOR STRESS PERIOD   25   TIME STEP  953

 -------------------------------------------------------------------------------
                             SWR1 OUTPUT PRINT TIMES
                        STRESS PERIOD   25   TIME STEP   953
 --------------- --------------- --------------- --------------- ---------------
     0.20076E+06                                                                
 -------------------------------------------------------------------------------
 
 SOLVING FOR HEAD 
 INITIAL HNEW IS AN EXACT SOLUTION.

 NO OUTPUT CONTROL FOR STRESS PERIOD   25   TIME STEP  954

 -------------------------------------------------------------------------------
                             SWR1 OUTPUT PRINT TIMES
                        STRESS PERIOD   25   TIME STEP   954
 --------------- --------------- --------------- --------------- ---------------
     0.20088E+06                                                                
 -------------------------------------------------------------------------------
 
 SOLVING FOR HEAD 
 INITIAL HNEW IS AN EXACT SOLUTION.

 NO OUTPUT CONTROL FOR STRESS PERIOD   25   TIME STEP  955

 -------------------------------------------------------------------------------
                             SWR1 OUTPUT PRINT TIMES
                        STRESS PERIOD   25   TIME STEP   955
 --------------- --------------- --------------- --------------- ---------------
     0.20100E+06                                                                
 -------------------------------------------------------------------------------
 
 SOLVING FOR HEAD 
 INITIAL HNEW IS AN EXACT SOLUTION.

 NO OUTPUT CONTROL FOR STRESS PERIOD   25   TIME STEP  956

 -------------------------------------------------------------------------------
                             SWR1 OUTPUT PRINT TIMES
                        STRESS PERIOD   25   TIME STEP   956
 --------------- --------------- --------------- --------------- ---------------
     0.20112E+06                                                                
 -------------------------------------------------------------------------------
 
 SOLVING FOR HEAD 
 INITIAL HNEW IS AN EXACT SOLUTION.

 NO OUTPUT CONTROL FOR STRESS PERIOD   25   TIME STEP  957

 -------------------------------------------------------------------------------
                             SWR1 OUTPUT PRINT TIMES
                        STRESS PERIOD   25   TIME STEP   957
 --------------- --------------- --------------- --------------- ---------------
     0.20124E+06                                                                
 -------------------------------------------------------------------------------
 
 SOLVING FOR HEAD 
 INITIAL HNEW IS AN EXACT SOLUTION.

 NO OUTPUT CONTROL FOR STRESS PERIOD   25   TIME STEP  958

 -------------------------------------------------------------------------------
                             SWR1 OUTPUT PRINT TIMES
                        STRESS PERIOD   25   TIME STEP   958
 --------------- --------------- --------------- --------------- ---------------
     0.20136E+06                                                                
 -------------------------------------------------------------------------------
 
 SOLVING FOR HEAD 
 INITIAL HNEW IS AN EXACT SOLUTION.

 NO OUTPUT CONTROL FOR STRESS PERIOD   25   TIME STEP  959

 -------------------------------------------------------------------------------
                             SWR1 OUTPUT PRINT TIMES
                        STRESS PERIOD   25   TIME STEP   959
 --------------- --------------- --------------- --------------- ---------------
     0.20148E+06                                                                
 -------------------------------------------------------------------------------
 
 SOLVING FOR HEAD 
 INITIAL HNEW IS AN EXACT SOLUTION.

 NO OUTPUT CONTROL FOR STRESS PERIOD   25   TIME STEP  960

 -------------------------------------------------------------------------------
                             SWR1 OUTPUT PRINT TIMES
                        STRESS PERIOD   25   TIME STEP   960
 --------------- --------------- --------------- --------------- ---------------
     0.20160E+06                                                                
 -------------------------------------------------------------------------------
 
 SOLVING FOR HEAD 
 INITIAL HNEW IS AN EXACT SOLUTION.

 NO OUTPUT CONTROL FOR STRESS PERIOD   25   TIME STEP  961

 -------------------------------------------------------------------------------
                             SWR1 OUTPUT PRINT TIMES
                        STRESS PERIOD   25   TIME STEP   961
 --------------- --------------- --------------- --------------- ---------------
     0.20172E+06                                                                
 -------------------------------------------------------------------------------
 
 SOLVING FOR HEAD 
 INITIAL HNEW IS AN EXACT SOLUTION.

 NO OUTPUT CONTROL FOR STRESS PERIOD   25   TIME STEP  962

 -------------------------------------------------------------------------------
                             SWR1 OUTPUT PRINT TIMES
                        STRESS PERIOD   25   TIME STEP   962
 --------------- --------------- --------------- --------------- ---------------
     0.20184E+06                                                                
 -------------------------------------------------------------------------------
 
 SOLVING FOR HEAD 
 INITIAL HNEW IS AN EXACT SOLUTION.

 NO OUTPUT CONTROL FOR STRESS PERIOD   25   TIME STEP  963

 -------------------------------------------------------------------------------
                             SWR1 OUTPUT PRINT TIMES
                        STRESS PERIOD   25   TIME STEP   963
 --------------- --------------- --------------- --------------- ---------------
     0.20196E+06                                                                
 -------------------------------------------------------------------------------
 
 SOLVING FOR HEAD 
 INITIAL HNEW IS AN EXACT SOLUTION.

 NO OUTPUT CONTROL FOR STRESS PERIOD   25   TIME STEP  964

 -------------------------------------------------------------------------------
                             SWR1 OUTPUT PRINT TIMES
                        STRESS PERIOD   25   TIME STEP   964
 --------------- --------------- --------------- --------------- ---------------
     0.20208E+06                                                                
 -------------------------------------------------------------------------------
 
 SOLVING FOR HEAD 
 INITIAL HNEW IS AN EXACT SOLUTION.

 NO OUTPUT CONTROL FOR STRESS PERIOD   25   TIME STEP  965

 -------------------------------------------------------------------------------
                             SWR1 OUTPUT PRINT TIMES
                        STRESS PERIOD   25   TIME STEP   965
 --------------- --------------- --------------- --------------- ---------------
     0.20220E+06                                                                
 -------------------------------------------------------------------------------
 
 SOLVING FOR HEAD 
 INITIAL HNEW IS AN EXACT SOLUTION.

 NO OUTPUT CONTROL FOR STRESS PERIOD   25   TIME STEP  966

 -------------------------------------------------------------------------------
                             SWR1 OUTPUT PRINT TIMES
                        STRESS PERIOD   25   TIME STEP   966
 --------------- --------------- --------------- --------------- ---------------
     0.20232E+06                                                                
 -------------------------------------------------------------------------------
 
 SOLVING FOR HEAD 
 INITIAL HNEW IS AN EXACT SOLUTION.

 NO OUTPUT CONTROL FOR STRESS PERIOD   25   TIME STEP  967

 -------------------------------------------------------------------------------
                             SWR1 OUTPUT PRINT TIMES
                        STRESS PERIOD   25   TIME STEP   967
 --------------- --------------- --------------- --------------- ---------------
     0.20244E+06                                                                
 -------------------------------------------------------------------------------
 
 SOLVING FOR HEAD 
 INITIAL HNEW IS AN EXACT SOLUTION.

 NO OUTPUT CONTROL FOR STRESS PERIOD   25   TIME STEP  968

 -------------------------------------------------------------------------------
                             SWR1 OUTPUT PRINT TIMES
                        STRESS PERIOD   25   TIME STEP   968
 --------------- --------------- --------------- --------------- ---------------
     0.20256E+06                                                                
 -------------------------------------------------------------------------------
 
 SOLVING FOR HEAD 
 INITIAL HNEW IS AN EXACT SOLUTION.

 NO OUTPUT CONTROL FOR STRESS PERIOD   25   TIME STEP  969

 -------------------------------------------------------------------------------
                             SWR1 OUTPUT PRINT TIMES
                        STRESS PERIOD   25   TIME STEP   969
 --------------- --------------- --------------- --------------- ---------------
     0.20268E+06                                                                
 -------------------------------------------------------------------------------
 
 SOLVING FOR HEAD 
 INITIAL HNEW IS AN EXACT SOLUTION.

 NO OUTPUT CONTROL FOR STRESS PERIOD   25   TIME STEP  970

 -------------------------------------------------------------------------------
                             SWR1 OUTPUT PRINT TIMES
                        STRESS PERIOD   25   TIME STEP   970
 --------------- --------------- --------------- --------------- ---------------
     0.20280E+06                                                                
 -------------------------------------------------------------------------------
 
 SOLVING FOR HEAD 
 INITIAL HNEW IS AN EXACT SOLUTION.

 NO OUTPUT CONTROL FOR STRESS PERIOD   25   TIME STEP  971

 -------------------------------------------------------------------------------
                             SWR1 OUTPUT PRINT TIMES
                        STRESS PERIOD   25   TIME STEP   971
 --------------- --------------- --------------- --------------- ---------------
     0.20292E+06                                                                
 -------------------------------------------------------------------------------
 
 SOLVING FOR HEAD 
 INITIAL HNEW IS AN EXACT SOLUTION.

 NO OUTPUT CONTROL FOR STRESS PERIOD   25   TIME STEP  972

 -------------------------------------------------------------------------------
                             SWR1 OUTPUT PRINT TIMES
                        STRESS PERIOD   25   TIME STEP   972
 --------------- --------------- --------------- --------------- ---------------
     0.20304E+06                                                                
 -------------------------------------------------------------------------------
 
 SOLVING FOR HEAD 
 INITIAL HNEW IS AN EXACT SOLUTION.

 NO OUTPUT CONTROL FOR STRESS PERIOD   25   TIME STEP  973

 -------------------------------------------------------------------------------
                             SWR1 OUTPUT PRINT TIMES
                        STRESS PERIOD   25   TIME STEP   973
 --------------- --------------- --------------- --------------- ---------------
     0.20316E+06                                                                
 -------------------------------------------------------------------------------
 
 SOLVING FOR HEAD 
 INITIAL HNEW IS AN EXACT SOLUTION.

 NO OUTPUT CONTROL FOR STRESS PERIOD   25   TIME STEP  974

 -------------------------------------------------------------------------------
                             SWR1 OUTPUT PRINT TIMES
                        STRESS PERIOD   25   TIME STEP   974
 --------------- --------------- --------------- --------------- ---------------
     0.20328E+06                                                                
 -------------------------------------------------------------------------------
 
 SOLVING FOR HEAD 
 INITIAL HNEW IS AN EXACT SOLUTION.

 NO OUTPUT CONTROL FOR STRESS PERIOD   25   TIME STEP  975

 -------------------------------------------------------------------------------
                             SWR1 OUTPUT PRINT TIMES
                        STRESS PERIOD   25   TIME STEP   975
 --------------- --------------- --------------- --------------- ---------------
     0.20340E+06                                                                
 -------------------------------------------------------------------------------
 
 SOLVING FOR HEAD 
 INITIAL HNEW IS AN EXACT SOLUTION.

 NO OUTPUT CONTROL FOR STRESS PERIOD   25   TIME STEP  976

 -------------------------------------------------------------------------------
                             SWR1 OUTPUT PRINT TIMES
                        STRESS PERIOD   25   TIME STEP   976
 --------------- --------------- --------------- --------------- ---------------
     0.20352E+06                                                                
 -------------------------------------------------------------------------------
 
 SOLVING FOR HEAD 
 INITIAL HNEW IS AN EXACT SOLUTION.

 NO OUTPUT CONTROL FOR STRESS PERIOD   25   TIME STEP  977

 -------------------------------------------------------------------------------
                             SWR1 OUTPUT PRINT TIMES
                        STRESS PERIOD   25   TIME STEP   977
 --------------- --------------- --------------- --------------- ---------------
     0.20364E+06                                                                
 -------------------------------------------------------------------------------
 
 SOLVING FOR HEAD 
 INITIAL HNEW IS AN EXACT SOLUTION.

 NO OUTPUT CONTROL FOR STRESS PERIOD   25   TIME STEP  978

 -------------------------------------------------------------------------------
                             SWR1 OUTPUT PRINT TIMES
                        STRESS PERIOD   25   TIME STEP   978
 --------------- --------------- --------------- --------------- ---------------
     0.20376E+06                                                                
 -------------------------------------------------------------------------------
 
 SOLVING FOR HEAD 
 INITIAL HNEW IS AN EXACT SOLUTION.

 NO OUTPUT CONTROL FOR STRESS PERIOD   25   TIME STEP  979

 -------------------------------------------------------------------------------
                             SWR1 OUTPUT PRINT TIMES
                        STRESS PERIOD   25   TIME STEP   979
 --------------- --------------- --------------- --------------- ---------------
     0.20388E+06                                                                
 -------------------------------------------------------------------------------
 
 SOLVING FOR HEAD 
 INITIAL HNEW IS AN EXACT SOLUTION.

 NO OUTPUT CONTROL FOR STRESS PERIOD   25   TIME STEP  980

 -------------------------------------------------------------------------------
                             SWR1 OUTPUT PRINT TIMES
                        STRESS PERIOD   25   TIME STEP   980
 --------------- --------------- --------------- --------------- ---------------
     0.20400E+06                                                                
 -------------------------------------------------------------------------------
 
 SOLVING FOR HEAD 
 INITIAL HNEW IS AN EXACT SOLUTION.

 NO OUTPUT CONTROL FOR STRESS PERIOD   25   TIME STEP  981

 -------------------------------------------------------------------------------
                             SWR1 OUTPUT PRINT TIMES
                        STRESS PERIOD   25   TIME STEP   981
 --------------- --------------- --------------- --------------- ---------------
     0.20412E+06                                                                
 -------------------------------------------------------------------------------
 
 SOLVING FOR HEAD 
 INITIAL HNEW IS AN EXACT SOLUTION.

 NO OUTPUT CONTROL FOR STRESS PERIOD   25   TIME STEP  982

 -------------------------------------------------------------------------------
                             SWR1 OUTPUT PRINT TIMES
                        STRESS PERIOD   25   TIME STEP   982
 --------------- --------------- --------------- --------------- ---------------
     0.20424E+06                                                                
 -------------------------------------------------------------------------------
 
 SOLVING FOR HEAD 
 INITIAL HNEW IS AN EXACT SOLUTION.

 NO OUTPUT CONTROL FOR STRESS PERIOD   25   TIME STEP  983

 -------------------------------------------------------------------------------
                             SWR1 OUTPUT PRINT TIMES
                        STRESS PERIOD   25   TIME STEP   983
 --------------- --------------- --------------- --------------- ---------------
     0.20436E+06                                                                
 -------------------------------------------------------------------------------
 
 SOLVING FOR HEAD 
 INITIAL HNEW IS AN EXACT SOLUTION.

 NO OUTPUT CONTROL FOR STRESS PERIOD   25   TIME STEP  984

 -------------------------------------------------------------------------------
                             SWR1 OUTPUT PRINT TIMES
                        STRESS PERIOD   25   TIME STEP   984
 --------------- --------------- --------------- --------------- ---------------
     0.20448E+06                                                                
 -------------------------------------------------------------------------------
 
 SOLVING FOR HEAD 
 INITIAL HNEW IS AN EXACT SOLUTION.

 NO OUTPUT CONTROL FOR STRESS PERIOD   25   TIME STEP  985

 -------------------------------------------------------------------------------
                             SWR1 OUTPUT PRINT TIMES
                        STRESS PERIOD   25   TIME STEP   985
 --------------- --------------- --------------- --------------- ---------------
     0.20460E+06                                                                
 -------------------------------------------------------------------------------
 
 SOLVING FOR HEAD 
 INITIAL HNEW IS AN EXACT SOLUTION.

 NO OUTPUT CONTROL FOR STRESS PERIOD   25   TIME STEP  986

 -------------------------------------------------------------------------------
                             SWR1 OUTPUT PRINT TIMES
                        STRESS PERIOD   25   TIME STEP   986
 --------------- --------------- --------------- --------------- ---------------
     0.20472E+06                                                                
 -------------------------------------------------------------------------------
 
 SOLVING FOR HEAD 
 INITIAL HNEW IS AN EXACT SOLUTION.

 NO OUTPUT CONTROL FOR STRESS PERIOD   25   TIME STEP  987

 -------------------------------------------------------------------------------
                             SWR1 OUTPUT PRINT TIMES
                        STRESS PERIOD   25   TIME STEP   987
 --------------- --------------- --------------- --------------- ---------------
     0.20484E+06                                                                
 -------------------------------------------------------------------------------
 
 SOLVING FOR HEAD 
 INITIAL HNEW IS AN EXACT SOLUTION.

 NO OUTPUT CONTROL FOR STRESS PERIOD   25   TIME STEP  988

 -------------------------------------------------------------------------------
                             SWR1 OUTPUT PRINT TIMES
                        STRESS PERIOD   25   TIME STEP   988
 --------------- --------------- --------------- --------------- ---------------
     0.20496E+06                                                                
 -------------------------------------------------------------------------------
 
 SOLVING FOR HEAD 
 INITIAL HNEW IS AN EXACT SOLUTION.

 NO OUTPUT CONTROL FOR STRESS PERIOD   25   TIME STEP  989

 -------------------------------------------------------------------------------
                             SWR1 OUTPUT PRINT TIMES
                        STRESS PERIOD   25   TIME STEP   989
 --------------- --------------- --------------- --------------- ---------------
     0.20508E+06                                                                
 -------------------------------------------------------------------------------
 
 SOLVING FOR HEAD 
 INITIAL HNEW IS AN EXACT SOLUTION.

 NO OUTPUT CONTROL FOR STRESS PERIOD   25   TIME STEP  990

 -------------------------------------------------------------------------------
                             SWR1 OUTPUT PRINT TIMES
                        STRESS PERIOD   25   TIME STEP   990
 --------------- --------------- --------------- --------------- ---------------
     0.20520E+06                                                                
 -------------------------------------------------------------------------------
 
 SOLVING FOR HEAD 
 INITIAL HNEW IS AN EXACT SOLUTION.

 NO OUTPUT CONTROL FOR STRESS PERIOD   25   TIME STEP  991

 -------------------------------------------------------------------------------
                             SWR1 OUTPUT PRINT TIMES
                        STRESS PERIOD   25   TIME STEP   991
 --------------- --------------- --------------- --------------- ---------------
     0.20532E+06                                                                
 -------------------------------------------------------------------------------
 
 SOLVING FOR HEAD 
 INITIAL HNEW IS AN EXACT SOLUTION.

 NO OUTPUT CONTROL FOR STRESS PERIOD   25   TIME STEP  992

 -------------------------------------------------------------------------------
                             SWR1 OUTPUT PRINT TIMES
                        STRESS PERIOD   25   TIME STEP   992
 --------------- --------------- --------------- --------------- ---------------
     0.20544E+06                                                                
 -------------------------------------------------------------------------------
 
 SOLVING FOR HEAD 
 INITIAL HNEW IS AN EXACT SOLUTION.

 NO OUTPUT CONTROL FOR STRESS PERIOD   25   TIME STEP  993

 -------------------------------------------------------------------------------
                             SWR1 OUTPUT PRINT TIMES
                        STRESS PERIOD   25   TIME STEP   993
 --------------- --------------- --------------- --------------- ---------------
     0.20556E+06                                                                
 -------------------------------------------------------------------------------
 
 SOLVING FOR HEAD 
 INITIAL HNEW IS AN EXACT SOLUTION.

 NO OUTPUT CONTROL FOR STRESS PERIOD   25   TIME STEP  994

 -------------------------------------------------------------------------------
                             SWR1 OUTPUT PRINT TIMES
                        STRESS PERIOD   25   TIME STEP   994
 --------------- --------------- --------------- --------------- ---------------
     0.20568E+06                                                                
 -------------------------------------------------------------------------------
 
 SOLVING FOR HEAD 
 INITIAL HNEW IS AN EXACT SOLUTION.

 NO OUTPUT CONTROL FOR STRESS PERIOD   25   TIME STEP  995

 -------------------------------------------------------------------------------
                             SWR1 OUTPUT PRINT TIMES
                        STRESS PERIOD   25   TIME STEP   995
 --------------- --------------- --------------- --------------- ---------------
     0.20580E+06                                                                
 -------------------------------------------------------------------------------
 
 SOLVING FOR HEAD 
 INITIAL HNEW IS AN EXACT SOLUTION.

 NO OUTPUT CONTROL FOR STRESS PERIOD   25   TIME STEP  996

 -------------------------------------------------------------------------------
                             SWR1 OUTPUT PRINT TIMES
                        STRESS PERIOD   25   TIME STEP   996
 --------------- --------------- --------------- --------------- ---------------
     0.20592E+06                                                                
 -------------------------------------------------------------------------------
 
 SOLVING FOR HEAD 
 INITIAL HNEW IS AN EXACT SOLUTION.

 NO OUTPUT CONTROL FOR STRESS PERIOD   25   TIME STEP  997

 -------------------------------------------------------------------------------
                             SWR1 OUTPUT PRINT TIMES
                        STRESS PERIOD   25   TIME STEP   997
 --------------- --------------- --------------- --------------- ---------------
     0.20604E+06                                                                
 -------------------------------------------------------------------------------
 
 SOLVING FOR HEAD 
 INITIAL HNEW IS AN EXACT SOLUTION.

 NO OUTPUT CONTROL FOR STRESS PERIOD   25   TIME STEP  998

 -------------------------------------------------------------------------------
                             SWR1 OUTPUT PRINT TIMES
                        STRESS PERIOD   25   TIME STEP   998
 --------------- --------------- --------------- --------------- ---------------
     0.20616E+06                                                                
 -------------------------------------------------------------------------------
 
 SOLVING FOR HEAD 
 INITIAL HNEW IS AN EXACT SOLUTION.

 NO OUTPUT CONTROL FOR STRESS PERIOD   25   TIME STEP  999

 -------------------------------------------------------------------------------
                             SWR1 OUTPUT PRINT TIMES
                        STRESS PERIOD   25   TIME STEP   999
 --------------- --------------- --------------- --------------- ---------------
     0.20628E+06                                                                
 -------------------------------------------------------------------------------
 
 SOLVING FOR HEAD 
 INITIAL HNEW IS AN EXACT SOLUTION.

 NO OUTPUT CONTROL FOR STRESS PERIOD   25   TIME STEP 1000

 -------------------------------------------------------------------------------
                             SWR1 OUTPUT PRINT TIMES
                        STRESS PERIOD   25   TIME STEP  1000
 --------------- --------------- --------------- --------------- ---------------
     0.20640E+06                                                                
 -------------------------------------------------------------------------------
 
 SOLVING FOR HEAD 
 INITIAL HNEW IS AN EXACT SOLUTION.

 NO OUTPUT CONTROL FOR STRESS PERIOD   25   TIME STEP 1001

 -------------------------------------------------------------------------------
                             SWR1 OUTPUT PRINT TIMES
                        STRESS PERIOD   25   TIME STEP  1001
 --------------- --------------- --------------- --------------- ---------------
     0.20652E+06                                                                
 -------------------------------------------------------------------------------
 
 SOLVING FOR HEAD 
 INITIAL HNEW IS AN EXACT SOLUTION.

 NO OUTPUT CONTROL FOR STRESS PERIOD   25   TIME STEP 1002

 -------------------------------------------------------------------------------
                             SWR1 OUTPUT PRINT TIMES
                        STRESS PERIOD   25   TIME STEP  1002
 --------------- --------------- --------------- --------------- ---------------
     0.20664E+06                                                                
 -------------------------------------------------------------------------------
 
 SOLVING FOR HEAD 
 INITIAL HNEW IS AN EXACT SOLUTION.

 NO OUTPUT CONTROL FOR STRESS PERIOD   25   TIME STEP 1003

 -------------------------------------------------------------------------------
                             SWR1 OUTPUT PRINT TIMES
                        STRESS PERIOD   25   TIME STEP  1003
 --------------- --------------- --------------- --------------- ---------------
     0.20676E+06                                                                
 -------------------------------------------------------------------------------
 
 SOLVING FOR HEAD 
 INITIAL HNEW IS AN EXACT SOLUTION.

 NO OUTPUT CONTROL FOR STRESS PERIOD   25   TIME STEP 1004

 -------------------------------------------------------------------------------
                             SWR1 OUTPUT PRINT TIMES
                        STRESS PERIOD   25   TIME STEP  1004
 --------------- --------------- --------------- --------------- ---------------
     0.20688E+06                                                                
 -------------------------------------------------------------------------------
 
 SOLVING FOR HEAD 
 INITIAL HNEW IS AN EXACT SOLUTION.

 NO OUTPUT CONTROL FOR STRESS PERIOD   25   TIME STEP 1005

 -------------------------------------------------------------------------------
                             SWR1 OUTPUT PRINT TIMES
                        STRESS PERIOD   25   TIME STEP  1005
 --------------- --------------- --------------- --------------- ---------------
     0.20700E+06                                                                
 -------------------------------------------------------------------------------
 
 SOLVING FOR HEAD 
 INITIAL HNEW IS AN EXACT SOLUTION.

 NO OUTPUT CONTROL FOR STRESS PERIOD   25   TIME STEP 1006

 -------------------------------------------------------------------------------
                             SWR1 OUTPUT PRINT TIMES
                        STRESS PERIOD   25   TIME STEP  1006
 --------------- --------------- --------------- --------------- ---------------
     0.20712E+06                                                                
 -------------------------------------------------------------------------------
 
 SOLVING FOR HEAD 
 INITIAL HNEW IS AN EXACT SOLUTION.

 NO OUTPUT CONTROL FOR STRESS PERIOD   25   TIME STEP 1007

 -------------------------------------------------------------------------------
                             SWR1 OUTPUT PRINT TIMES
                        STRESS PERIOD   25   TIME STEP  1007
 --------------- --------------- --------------- --------------- ---------------
     0.20724E+06                                                                
 -------------------------------------------------------------------------------
 
 SOLVING FOR HEAD 
 INITIAL HNEW IS AN EXACT SOLUTION.

 NO OUTPUT CONTROL FOR STRESS PERIOD   25   TIME STEP 1008

 -------------------------------------------------------------------------------
                             SWR1 OUTPUT PRINT TIMES
                        STRESS PERIOD   25   TIME STEP  1008
 --------------- --------------- --------------- --------------- ---------------
     0.20736E+06                                                                
 -------------------------------------------------------------------------------
 
 SOLVING FOR HEAD 
 INITIAL HNEW IS AN EXACT SOLUTION.

 NO OUTPUT CONTROL FOR STRESS PERIOD   25   TIME STEP 1009

 -------------------------------------------------------------------------------
                             SWR1 OUTPUT PRINT TIMES
                        STRESS PERIOD   25   TIME STEP  1009
 --------------- --------------- --------------- --------------- ---------------
     0.20748E+06                                                                
 -------------------------------------------------------------------------------
 
 SOLVING FOR HEAD 
 INITIAL HNEW IS AN EXACT SOLUTION.

 NO OUTPUT CONTROL FOR STRESS PERIOD   25   TIME STEP 1010

 -------------------------------------------------------------------------------
                             SWR1 OUTPUT PRINT TIMES
                        STRESS PERIOD   25   TIME STEP  1010
 --------------- --------------- --------------- --------------- ---------------
     0.20760E+06                                                                
 -------------------------------------------------------------------------------
 
 SOLVING FOR HEAD 
 INITIAL HNEW IS AN EXACT SOLUTION.

 NO OUTPUT CONTROL FOR STRESS PERIOD   25   TIME STEP 1011

 -------------------------------------------------------------------------------
                             SWR1 OUTPUT PRINT TIMES
                        STRESS PERIOD   25   TIME STEP  1011
 --------------- --------------- --------------- --------------- ---------------
     0.20772E+06                                                                
 -------------------------------------------------------------------------------
 
 SOLVING FOR HEAD 
 INITIAL HNEW IS AN EXACT SOLUTION.

 NO OUTPUT CONTROL FOR STRESS PERIOD   25   TIME STEP 1012

 -------------------------------------------------------------------------------
                             SWR1 OUTPUT PRINT TIMES
                        STRESS PERIOD   25   TIME STEP  1012
 --------------- --------------- --------------- --------------- ---------------
     0.20784E+06                                                                
 -------------------------------------------------------------------------------
 
 SOLVING FOR HEAD 
 INITIAL HNEW IS AN EXACT SOLUTION.

 NO OUTPUT CONTROL FOR STRESS PERIOD   25   TIME STEP 1013

 -------------------------------------------------------------------------------
                             SWR1 OUTPUT PRINT TIMES
                        STRESS PERIOD   25   TIME STEP  1013
 --------------- --------------- --------------- --------------- ---------------
     0.20796E+06                                                                
 -------------------------------------------------------------------------------
 
 SOLVING FOR HEAD 
 INITIAL HNEW IS AN EXACT SOLUTION.

 NO OUTPUT CONTROL FOR STRESS PERIOD   25   TIME STEP 1014

 -------------------------------------------------------------------------------
                             SWR1 OUTPUT PRINT TIMES
                        STRESS PERIOD   25   TIME STEP  1014
 --------------- --------------- --------------- --------------- ---------------
     0.20808E+06                                                                
 -------------------------------------------------------------------------------
 
 SOLVING FOR HEAD 
 INITIAL HNEW IS AN EXACT SOLUTION.

 NO OUTPUT CONTROL FOR STRESS PERIOD   25   TIME STEP 1015

 -------------------------------------------------------------------------------
                             SWR1 OUTPUT PRINT TIMES
                        STRESS PERIOD   25   TIME STEP  1015
 --------------- --------------- --------------- --------------- ---------------
     0.20820E+06                                                                
 -------------------------------------------------------------------------------
 
 SOLVING FOR HEAD 
 INITIAL HNEW IS AN EXACT SOLUTION.

 NO OUTPUT CONTROL FOR STRESS PERIOD   25   TIME STEP 1016

 -------------------------------------------------------------------------------
                             SWR1 OUTPUT PRINT TIMES
                        STRESS PERIOD   25   TIME STEP  1016
 --------------- --------------- --------------- --------------- ---------------
     0.20832E+06                                                                
 -------------------------------------------------------------------------------
 
 SOLVING FOR HEAD 
 INITIAL HNEW IS AN EXACT SOLUTION.

 NO OUTPUT CONTROL FOR STRESS PERIOD   25   TIME STEP 1017

 -------------------------------------------------------------------------------
                             SWR1 OUTPUT PRINT TIMES
                        STRESS PERIOD   25   TIME STEP  1017
 --------------- --------------- --------------- --------------- ---------------
     0.20844E+06                                                                
 -------------------------------------------------------------------------------
 
 SOLVING FOR HEAD 
 INITIAL HNEW IS AN EXACT SOLUTION.

 NO OUTPUT CONTROL FOR STRESS PERIOD   25   TIME STEP 1018

 -------------------------------------------------------------------------------
                             SWR1 OUTPUT PRINT TIMES
                        STRESS PERIOD   25   TIME STEP  1018
 --------------- --------------- --------------- --------------- ---------------
     0.20856E+06                                                                
 -------------------------------------------------------------------------------
 
 SOLVING FOR HEAD 
 INITIAL HNEW IS AN EXACT SOLUTION.

 NO OUTPUT CONTROL FOR STRESS PERIOD   25   TIME STEP 1019

 -------------------------------------------------------------------------------
                             SWR1 OUTPUT PRINT TIMES
                        STRESS PERIOD   25   TIME STEP  1019
 --------------- --------------- --------------- --------------- ---------------
     0.20868E+06                                                                
 -------------------------------------------------------------------------------
 
 SOLVING FOR HEAD 
 INITIAL HNEW IS AN EXACT SOLUTION.

 NO OUTPUT CONTROL FOR STRESS PERIOD   25   TIME STEP 1020

 -------------------------------------------------------------------------------
                             SWR1 OUTPUT PRINT TIMES
                        STRESS PERIOD   25   TIME STEP  1020
 --------------- --------------- --------------- --------------- ---------------
     0.20880E+06                                                                
 -------------------------------------------------------------------------------
 
 SOLVING FOR HEAD 
 INITIAL HNEW IS AN EXACT SOLUTION.

 NO OUTPUT CONTROL FOR STRESS PERIOD   25   TIME STEP 1021

 -------------------------------------------------------------------------------
                             SWR1 OUTPUT PRINT TIMES
                        STRESS PERIOD   25   TIME STEP  1021
 --------------- --------------- --------------- --------------- ---------------
     0.20892E+06                                                                
 -------------------------------------------------------------------------------
 
 SOLVING FOR HEAD 
 INITIAL HNEW IS AN EXACT SOLUTION.

 NO OUTPUT CONTROL FOR STRESS PERIOD   25   TIME STEP 1022

 -------------------------------------------------------------------------------
                             SWR1 OUTPUT PRINT TIMES
                        STRESS PERIOD   25   TIME STEP  1022
 --------------- --------------- --------------- --------------- ---------------
     0.20904E+06                                                                
 -------------------------------------------------------------------------------
 
 SOLVING FOR HEAD 
 INITIAL HNEW IS AN EXACT SOLUTION.

 NO OUTPUT CONTROL FOR STRESS PERIOD   25   TIME STEP 1023

 -------------------------------------------------------------------------------
                             SWR1 OUTPUT PRINT TIMES
                        STRESS PERIOD   25   TIME STEP  1023
 --------------- --------------- --------------- --------------- ---------------
     0.20916E+06                                                                
 -------------------------------------------------------------------------------
 
 SOLVING FOR HEAD 
 INITIAL HNEW IS AN EXACT SOLUTION.

 NO OUTPUT CONTROL FOR STRESS PERIOD   25   TIME STEP 1024

 -------------------------------------------------------------------------------
                             SWR1 OUTPUT PRINT TIMES
                        STRESS PERIOD   25   TIME STEP  1024
 --------------- --------------- --------------- --------------- ---------------
     0.20928E+06                                                                
 -------------------------------------------------------------------------------
 
 SOLVING FOR HEAD 
 INITIAL HNEW IS AN EXACT SOLUTION.

 NO OUTPUT CONTROL FOR STRESS PERIOD   25   TIME STEP 1025

 -------------------------------------------------------------------------------
                             SWR1 OUTPUT PRINT TIMES
                        STRESS PERIOD   25   TIME STEP  1025
 --------------- --------------- --------------- --------------- ---------------
     0.20940E+06                                                                
 -------------------------------------------------------------------------------
 
 SOLVING FOR HEAD 
 INITIAL HNEW IS AN EXACT SOLUTION.

 NO OUTPUT CONTROL FOR STRESS PERIOD   25   TIME STEP 1026

 -------------------------------------------------------------------------------
                             SWR1 OUTPUT PRINT TIMES
                        STRESS PERIOD   25   TIME STEP  1026
 --------------- --------------- --------------- --------------- ---------------
     0.20952E+06                                                                
 -------------------------------------------------------------------------------
 
 SOLVING FOR HEAD 
 INITIAL HNEW IS AN EXACT SOLUTION.

 NO OUTPUT CONTROL FOR STRESS PERIOD   25   TIME STEP 1027

 -------------------------------------------------------------------------------
                             SWR1 OUTPUT PRINT TIMES
                        STRESS PERIOD   25   TIME STEP  1027
 --------------- --------------- --------------- --------------- ---------------
     0.20964E+06                                                                
 -------------------------------------------------------------------------------
 
 SOLVING FOR HEAD 
 INITIAL HNEW IS AN EXACT SOLUTION.

 NO OUTPUT CONTROL FOR STRESS PERIOD   25   TIME STEP 1028

 -------------------------------------------------------------------------------
                             SWR1 OUTPUT PRINT TIMES
                        STRESS PERIOD   25   TIME STEP  1028
 --------------- --------------- --------------- --------------- ---------------
     0.20976E+06                                                                
 -------------------------------------------------------------------------------
 
 SOLVING FOR HEAD 
 INITIAL HNEW IS AN EXACT SOLUTION.

 NO OUTPUT CONTROL FOR STRESS PERIOD   25   TIME STEP 1029

 -------------------------------------------------------------------------------
                             SWR1 OUTPUT PRINT TIMES
                        STRESS PERIOD   25   TIME STEP  1029
 --------------- --------------- --------------- --------------- ---------------
     0.20988E+06                                                                
 -------------------------------------------------------------------------------
 
 SOLVING FOR HEAD 
 INITIAL HNEW IS AN EXACT SOLUTION.

 NO OUTPUT CONTROL FOR STRESS PERIOD   25   TIME STEP 1030

 -------------------------------------------------------------------------------
                             SWR1 OUTPUT PRINT TIMES
                        STRESS PERIOD   25   TIME STEP  1030
 --------------- --------------- --------------- --------------- ---------------
     0.21000E+06                                                                
 -------------------------------------------------------------------------------
 
 SOLVING FOR HEAD 
 INITIAL HNEW IS AN EXACT SOLUTION.

 NO OUTPUT CONTROL FOR STRESS PERIOD   25   TIME STEP 1031

 -------------------------------------------------------------------------------
                             SWR1 OUTPUT PRINT TIMES
                        STRESS PERIOD   25   TIME STEP  1031
 --------------- --------------- --------------- --------------- ---------------
     0.21012E+06                                                                
 -------------------------------------------------------------------------------
 
 SOLVING FOR HEAD 
 INITIAL HNEW IS AN EXACT SOLUTION.

 NO OUTPUT CONTROL FOR STRESS PERIOD   25   TIME STEP 1032

 -------------------------------------------------------------------------------
                             SWR1 OUTPUT PRINT TIMES
                        STRESS PERIOD   25   TIME STEP  1032
 --------------- --------------- --------------- --------------- ---------------
     0.21024E+06                                                                
 -------------------------------------------------------------------------------
 
 SOLVING FOR HEAD 
 INITIAL HNEW IS AN EXACT SOLUTION.

 NO OUTPUT CONTROL FOR STRESS PERIOD   25   TIME STEP 1033

 -------------------------------------------------------------------------------
                             SWR1 OUTPUT PRINT TIMES
                        STRESS PERIOD   25   TIME STEP  1033
 --------------- --------------- --------------- --------------- ---------------
     0.21036E+06                                                                
 -------------------------------------------------------------------------------
 
 SOLVING FOR HEAD 
 INITIAL HNEW IS AN EXACT SOLUTION.

 NO OUTPUT CONTROL FOR STRESS PERIOD   25   TIME STEP 1034

 -------------------------------------------------------------------------------
                             SWR1 OUTPUT PRINT TIMES
                        STRESS PERIOD   25   TIME STEP  1034
 --------------- --------------- --------------- --------------- ---------------
     0.21048E+06                                                                
 -------------------------------------------------------------------------------
 
 SOLVING FOR HEAD 
 INITIAL HNEW IS AN EXACT SOLUTION.

 NO OUTPUT CONTROL FOR STRESS PERIOD   25   TIME STEP 1035

 -------------------------------------------------------------------------------
                             SWR1 OUTPUT PRINT TIMES
                        STRESS PERIOD   25   TIME STEP  1035
 --------------- --------------- --------------- --------------- ---------------
     0.21060E+06                                                                
 -------------------------------------------------------------------------------
 
 SOLVING FOR HEAD 
 INITIAL HNEW IS AN EXACT SOLUTION.

 NO OUTPUT CONTROL FOR STRESS PERIOD   25   TIME STEP 1036

 -------------------------------------------------------------------------------
                             SWR1 OUTPUT PRINT TIMES
                        STRESS PERIOD   25   TIME STEP  1036
 --------------- --------------- --------------- --------------- ---------------
     0.21072E+06                                                                
 -------------------------------------------------------------------------------
 
 SOLVING FOR HEAD 
 INITIAL HNEW IS AN EXACT SOLUTION.

 NO OUTPUT CONTROL FOR STRESS PERIOD   25   TIME STEP 1037

 -------------------------------------------------------------------------------
                             SWR1 OUTPUT PRINT TIMES
                        STRESS PERIOD   25   TIME STEP  1037
 --------------- --------------- --------------- --------------- ---------------
     0.21084E+06                                                                
 -------------------------------------------------------------------------------
 
 SOLVING FOR HEAD 
 INITIAL HNEW IS AN EXACT SOLUTION.

 NO OUTPUT CONTROL FOR STRESS PERIOD   25   TIME STEP 1038

 -------------------------------------------------------------------------------
                             SWR1 OUTPUT PRINT TIMES
                        STRESS PERIOD   25   TIME STEP  1038
 --------------- --------------- --------------- --------------- ---------------
     0.21096E+06                                                                
 -------------------------------------------------------------------------------
 
 SOLVING FOR HEAD 
 INITIAL HNEW IS AN EXACT SOLUTION.

 NO OUTPUT CONTROL FOR STRESS PERIOD   25   TIME STEP 1039

 -------------------------------------------------------------------------------
                             SWR1 OUTPUT PRINT TIMES
                        STRESS PERIOD   25   TIME STEP  1039
 --------------- --------------- --------------- --------------- ---------------
     0.21108E+06                                                                
 -------------------------------------------------------------------------------
 
 SOLVING FOR HEAD 
 INITIAL HNEW IS AN EXACT SOLUTION.

 NO OUTPUT CONTROL FOR STRESS PERIOD   25   TIME STEP 1040

 -------------------------------------------------------------------------------
                             SWR1 OUTPUT PRINT TIMES
                        STRESS PERIOD   25   TIME STEP  1040
 --------------- --------------- --------------- --------------- ---------------
     0.21120E+06                                                                
 -------------------------------------------------------------------------------
 
 SOLVING FOR HEAD 
 INITIAL HNEW IS AN EXACT SOLUTION.

 NO OUTPUT CONTROL FOR STRESS PERIOD   25   TIME STEP 1041

 -------------------------------------------------------------------------------
                             SWR1 OUTPUT PRINT TIMES
                        STRESS PERIOD   25   TIME STEP  1041
 --------------- --------------- --------------- --------------- ---------------
     0.21132E+06                                                                
 -------------------------------------------------------------------------------
 
 SOLVING FOR HEAD 
 INITIAL HNEW IS AN EXACT SOLUTION.

 NO OUTPUT CONTROL FOR STRESS PERIOD   25   TIME STEP 1042

 -------------------------------------------------------------------------------
                             SWR1 OUTPUT PRINT TIMES
                        STRESS PERIOD   25   TIME STEP  1042
 --------------- --------------- --------------- --------------- ---------------
     0.21144E+06                                                                
 -------------------------------------------------------------------------------
 
 SOLVING FOR HEAD 
 INITIAL HNEW IS AN EXACT SOLUTION.

 NO OUTPUT CONTROL FOR STRESS PERIOD   25   TIME STEP 1043

 -------------------------------------------------------------------------------
                             SWR1 OUTPUT PRINT TIMES
                        STRESS PERIOD   25   TIME STEP  1043
 --------------- --------------- --------------- --------------- ---------------
     0.21156E+06                                                                
 -------------------------------------------------------------------------------
 
 SOLVING FOR HEAD 
 INITIAL HNEW IS AN EXACT SOLUTION.

 NO OUTPUT CONTROL FOR STRESS PERIOD   25   TIME STEP 1044

 -------------------------------------------------------------------------------
                             SWR1 OUTPUT PRINT TIMES
                        STRESS PERIOD   25   TIME STEP  1044
 --------------- --------------- --------------- --------------- ---------------
     0.21168E+06                                                                
 -------------------------------------------------------------------------------
 
 SOLVING FOR HEAD 
 INITIAL HNEW IS AN EXACT SOLUTION.

 NO OUTPUT CONTROL FOR STRESS PERIOD   25   TIME STEP 1045

 -------------------------------------------------------------------------------
                             SWR1 OUTPUT PRINT TIMES
                        STRESS PERIOD   25   TIME STEP  1045
 --------------- --------------- --------------- --------------- ---------------
     0.21180E+06                                                                
 -------------------------------------------------------------------------------
 
 SOLVING FOR HEAD 
 INITIAL HNEW IS AN EXACT SOLUTION.

 NO OUTPUT CONTROL FOR STRESS PERIOD   25   TIME STEP 1046

 -------------------------------------------------------------------------------
                             SWR1 OUTPUT PRINT TIMES
                        STRESS PERIOD   25   TIME STEP  1046
 --------------- --------------- --------------- --------------- ---------------
     0.21192E+06                                                                
 -------------------------------------------------------------------------------
 
 SOLVING FOR HEAD 
 INITIAL HNEW IS AN EXACT SOLUTION.

 NO OUTPUT CONTROL FOR STRESS PERIOD   25   TIME STEP 1047

 -------------------------------------------------------------------------------
                             SWR1 OUTPUT PRINT TIMES
                        STRESS PERIOD   25   TIME STEP  1047
 --------------- --------------- --------------- --------------- ---------------
     0.21204E+06                                                                
 -------------------------------------------------------------------------------
 
 SOLVING FOR HEAD 
 INITIAL HNEW IS AN EXACT SOLUTION.

 NO OUTPUT CONTROL FOR STRESS PERIOD   25   TIME STEP 1048

 -------------------------------------------------------------------------------
                             SWR1 OUTPUT PRINT TIMES
                        STRESS PERIOD   25   TIME STEP  1048
 --------------- --------------- --------------- --------------- ---------------
     0.21216E+06                                                                
 -------------------------------------------------------------------------------
 
 SOLVING FOR HEAD 
 INITIAL HNEW IS AN EXACT SOLUTION.

 NO OUTPUT CONTROL FOR STRESS PERIOD   25   TIME STEP 1049

 -------------------------------------------------------------------------------
                             SWR1 OUTPUT PRINT TIMES
                        STRESS PERIOD   25   TIME STEP  1049
 --------------- --------------- --------------- --------------- ---------------
     0.21228E+06                                                                
 -------------------------------------------------------------------------------
 
 SOLVING FOR HEAD 
 INITIAL HNEW IS AN EXACT SOLUTION.

 NO OUTPUT CONTROL FOR STRESS PERIOD   25   TIME STEP 1050

 -------------------------------------------------------------------------------
                             SWR1 OUTPUT PRINT TIMES
                        STRESS PERIOD   25   TIME STEP  1050
 --------------- --------------- --------------- --------------- ---------------
     0.21240E+06                                                                
 -------------------------------------------------------------------------------
 
 SOLVING FOR HEAD 
 INITIAL HNEW IS AN EXACT SOLUTION.

 NO OUTPUT CONTROL FOR STRESS PERIOD   25   TIME STEP 1051

 -------------------------------------------------------------------------------
                             SWR1 OUTPUT PRINT TIMES
                        STRESS PERIOD   25   TIME STEP  1051
 --------------- --------------- --------------- --------------- ---------------
     0.21252E+06                                                                
 -------------------------------------------------------------------------------
 
 SOLVING FOR HEAD 
 INITIAL HNEW IS AN EXACT SOLUTION.

 NO OUTPUT CONTROL FOR STRESS PERIOD   25   TIME STEP 1052

 -------------------------------------------------------------------------------
                             SWR1 OUTPUT PRINT TIMES
                        STRESS PERIOD   25   TIME STEP  1052
 --------------- --------------- --------------- --------------- ---------------
     0.21264E+06                                                                
 -------------------------------------------------------------------------------
 
 SOLVING FOR HEAD 
 INITIAL HNEW IS AN EXACT SOLUTION.

 NO OUTPUT CONTROL FOR STRESS PERIOD   25   TIME STEP 1053

 -------------------------------------------------------------------------------
                             SWR1 OUTPUT PRINT TIMES
                        STRESS PERIOD   25   TIME STEP  1053
 --------------- --------------- --------------- --------------- ---------------
     0.21276E+06                                                                
 -------------------------------------------------------------------------------
 
 SOLVING FOR HEAD 
 INITIAL HNEW IS AN EXACT SOLUTION.

 NO OUTPUT CONTROL FOR STRESS PERIOD   25   TIME STEP 1054

 -------------------------------------------------------------------------------
                             SWR1 OUTPUT PRINT TIMES
                        STRESS PERIOD   25   TIME STEP  1054
 --------------- --------------- --------------- --------------- ---------------
     0.21288E+06                                                                
 -------------------------------------------------------------------------------
 
 SOLVING FOR HEAD 
 INITIAL HNEW IS AN EXACT SOLUTION.

 NO OUTPUT CONTROL FOR STRESS PERIOD   25   TIME STEP 1055

 -------------------------------------------------------------------------------
                             SWR1 OUTPUT PRINT TIMES
                        STRESS PERIOD   25   TIME STEP  1055
 --------------- --------------- --------------- --------------- ---------------
     0.21300E+06                                                                
 -------------------------------------------------------------------------------
 
 SOLVING FOR HEAD 
 INITIAL HNEW IS AN EXACT SOLUTION.

 NO OUTPUT CONTROL FOR STRESS PERIOD   25   TIME STEP 1056

 -------------------------------------------------------------------------------
                             SWR1 OUTPUT PRINT TIMES
                        STRESS PERIOD   25   TIME STEP  1056
 --------------- --------------- --------------- --------------- ---------------
     0.21312E+06                                                                
 -------------------------------------------------------------------------------
 
 SOLVING FOR HEAD 
 INITIAL HNEW IS AN EXACT SOLUTION.

 NO OUTPUT CONTROL FOR STRESS PERIOD   25   TIME STEP 1057

 -------------------------------------------------------------------------------
                             SWR1 OUTPUT PRINT TIMES
                        STRESS PERIOD   25   TIME STEP  1057
 --------------- --------------- --------------- --------------- ---------------
     0.21324E+06                                                                
 -------------------------------------------------------------------------------
 
 SOLVING FOR HEAD 
 INITIAL HNEW IS AN EXACT SOLUTION.

 NO OUTPUT CONTROL FOR STRESS PERIOD   25   TIME STEP 1058

 -------------------------------------------------------------------------------
                             SWR1 OUTPUT PRINT TIMES
                        STRESS PERIOD   25   TIME STEP  1058
 --------------- --------------- --------------- --------------- ---------------
     0.21336E+06                                                                
 -------------------------------------------------------------------------------
 
 SOLVING FOR HEAD 
 INITIAL HNEW IS AN EXACT SOLUTION.

 NO OUTPUT CONTROL FOR STRESS PERIOD   25   TIME STEP 1059

 -------------------------------------------------------------------------------
                             SWR1 OUTPUT PRINT TIMES
                        STRESS PERIOD   25   TIME STEP  1059
 --------------- --------------- --------------- --------------- ---------------
     0.21348E+06                                                                
 -------------------------------------------------------------------------------
 
 SOLVING FOR HEAD 
 INITIAL HNEW IS AN EXACT SOLUTION.

 NO OUTPUT CONTROL FOR STRESS PERIOD   25   TIME STEP 1060

 -------------------------------------------------------------------------------
                             SWR1 OUTPUT PRINT TIMES
                        STRESS PERIOD   25   TIME STEP  1060
 --------------- --------------- --------------- --------------- ---------------
     0.21360E+06                                                                
 -------------------------------------------------------------------------------
 
 SOLVING FOR HEAD 
 INITIAL HNEW IS AN EXACT SOLUTION.

 NO OUTPUT CONTROL FOR STRESS PERIOD   25   TIME STEP 1061

 -------------------------------------------------------------------------------
                             SWR1 OUTPUT PRINT TIMES
                        STRESS PERIOD   25   TIME STEP  1061
 --------------- --------------- --------------- --------------- ---------------
     0.21372E+06                                                                
 -------------------------------------------------------------------------------
 
 SOLVING FOR HEAD 
 INITIAL HNEW IS AN EXACT SOLUTION.

 NO OUTPUT CONTROL FOR STRESS PERIOD   25   TIME STEP 1062

 -------------------------------------------------------------------------------
                             SWR1 OUTPUT PRINT TIMES
                        STRESS PERIOD   25   TIME STEP  1062
 --------------- --------------- --------------- --------------- ---------------
     0.21384E+06                                                                
 -------------------------------------------------------------------------------
 
 SOLVING FOR HEAD 
 INITIAL HNEW IS AN EXACT SOLUTION.

 NO OUTPUT CONTROL FOR STRESS PERIOD   25   TIME STEP 1063

 -------------------------------------------------------------------------------
                             SWR1 OUTPUT PRINT TIMES
                        STRESS PERIOD   25   TIME STEP  1063
 --------------- --------------- --------------- --------------- ---------------
     0.21396E+06                                                                
 -------------------------------------------------------------------------------
 
 SOLVING FOR HEAD 
 INITIAL HNEW IS AN EXACT SOLUTION.

 NO OUTPUT CONTROL FOR STRESS PERIOD   25   TIME STEP 1064

 -------------------------------------------------------------------------------
                             SWR1 OUTPUT PRINT TIMES
                        STRESS PERIOD   25   TIME STEP  1064
 --------------- --------------- --------------- --------------- ---------------
     0.21408E+06                                                                
 -------------------------------------------------------------------------------
 
 SOLVING FOR HEAD 
 INITIAL HNEW IS AN EXACT SOLUTION.

 NO OUTPUT CONTROL FOR STRESS PERIOD   25   TIME STEP 1065

 -------------------------------------------------------------------------------
                             SWR1 OUTPUT PRINT TIMES
                        STRESS PERIOD   25   TIME STEP  1065
 --------------- --------------- --------------- --------------- ---------------
     0.21420E+06                                                                
 -------------------------------------------------------------------------------
 
 SOLVING FOR HEAD 
 INITIAL HNEW IS AN EXACT SOLUTION.

 NO OUTPUT CONTROL FOR STRESS PERIOD   25   TIME STEP 1066

 -------------------------------------------------------------------------------
                             SWR1 OUTPUT PRINT TIMES
                        STRESS PERIOD   25   TIME STEP  1066
 --------------- --------------- --------------- --------------- ---------------
     0.21432E+06                                                                
 -------------------------------------------------------------------------------
 
 SOLVING FOR HEAD 
 INITIAL HNEW IS AN EXACT SOLUTION.

 NO OUTPUT CONTROL FOR STRESS PERIOD   25   TIME STEP 1067

 -------------------------------------------------------------------------------
                             SWR1 OUTPUT PRINT TIMES
                        STRESS PERIOD   25   TIME STEP  1067
 --------------- --------------- --------------- --------------- ---------------
     0.21444E+06                                                                
 -------------------------------------------------------------------------------
 
 SOLVING FOR HEAD 
 INITIAL HNEW IS AN EXACT SOLUTION.

 NO OUTPUT CONTROL FOR STRESS PERIOD   25   TIME STEP 1068

 -------------------------------------------------------------------------------
                             SWR1 OUTPUT PRINT TIMES
                        STRESS PERIOD   25   TIME STEP  1068
 --------------- --------------- --------------- --------------- ---------------
     0.21456E+06                                                                
 -------------------------------------------------------------------------------
 
 SOLVING FOR HEAD 
 INITIAL HNEW IS AN EXACT SOLUTION.

 NO OUTPUT CONTROL FOR STRESS PERIOD   25   TIME STEP 1069

 -------------------------------------------------------------------------------
                             SWR1 OUTPUT PRINT TIMES
                        STRESS PERIOD   25   TIME STEP  1069
 --------------- --------------- --------------- --------------- ---------------
     0.21468E+06                                                                
 -------------------------------------------------------------------------------
 
 SOLVING FOR HEAD 
 INITIAL HNEW IS AN EXACT SOLUTION.

 NO OUTPUT CONTROL FOR STRESS PERIOD   25   TIME STEP 1070

 -------------------------------------------------------------------------------
                             SWR1 OUTPUT PRINT TIMES
                        STRESS PERIOD   25   TIME STEP  1070
 --------------- --------------- --------------- --------------- ---------------
     0.21480E+06                                                                
 -------------------------------------------------------------------------------
 
 SOLVING FOR HEAD 
 INITIAL HNEW IS AN EXACT SOLUTION.

 NO OUTPUT CONTROL FOR STRESS PERIOD   25   TIME STEP 1071

 -------------------------------------------------------------------------------
                             SWR1 OUTPUT PRINT TIMES
                        STRESS PERIOD   25   TIME STEP  1071
 --------------- --------------- --------------- --------------- ---------------
     0.21492E+06                                                                
 -------------------------------------------------------------------------------
 
 SOLVING FOR HEAD 
 INITIAL HNEW IS AN EXACT SOLUTION.

 NO OUTPUT CONTROL FOR STRESS PERIOD   25   TIME STEP 1072

 -------------------------------------------------------------------------------
                             SWR1 OUTPUT PRINT TIMES
                        STRESS PERIOD   25   TIME STEP  1072
 --------------- --------------- --------------- --------------- ---------------
     0.21504E+06                                                                
 -------------------------------------------------------------------------------
 
 SOLVING FOR HEAD 
 INITIAL HNEW IS AN EXACT SOLUTION.

 NO OUTPUT CONTROL FOR STRESS PERIOD   25   TIME STEP 1073

 -------------------------------------------------------------------------------
                             SWR1 OUTPUT PRINT TIMES
                        STRESS PERIOD   25   TIME STEP  1073
 --------------- --------------- --------------- --------------- ---------------
     0.21516E+06                                                                
 -------------------------------------------------------------------------------
 
 SOLVING FOR HEAD 
 INITIAL HNEW IS AN EXACT SOLUTION.

 NO OUTPUT CONTROL FOR STRESS PERIOD   25   TIME STEP 1074

 -------------------------------------------------------------------------------
                             SWR1 OUTPUT PRINT TIMES
                        STRESS PERIOD   25   TIME STEP  1074
 --------------- --------------- --------------- --------------- ---------------
     0.21528E+06                                                                
 -------------------------------------------------------------------------------
 
 SOLVING FOR HEAD 
 INITIAL HNEW IS AN EXACT SOLUTION.

 NO OUTPUT CONTROL FOR STRESS PERIOD   25   TIME STEP 1075

 -------------------------------------------------------------------------------
                             SWR1 OUTPUT PRINT TIMES
                        STRESS PERIOD   25   TIME STEP  1075
 --------------- --------------- --------------- --------------- ---------------
     0.21540E+06                                                                
 -------------------------------------------------------------------------------
 
 SOLVING FOR HEAD 
 INITIAL HNEW IS AN EXACT SOLUTION.

 NO OUTPUT CONTROL FOR STRESS PERIOD   25   TIME STEP 1076

 -------------------------------------------------------------------------------
                             SWR1 OUTPUT PRINT TIMES
                        STRESS PERIOD   25   TIME STEP  1076
 --------------- --------------- --------------- --------------- ---------------
     0.21552E+06                                                                
 -------------------------------------------------------------------------------
 
 SOLVING FOR HEAD 
 INITIAL HNEW IS AN EXACT SOLUTION.

 NO OUTPUT CONTROL FOR STRESS PERIOD   25   TIME STEP 1077

 -------------------------------------------------------------------------------
                             SWR1 OUTPUT PRINT TIMES
                        STRESS PERIOD   25   TIME STEP  1077
 --------------- --------------- --------------- --------------- ---------------
     0.21564E+06                                                                
 -------------------------------------------------------------------------------
 
 SOLVING FOR HEAD 
 INITIAL HNEW IS AN EXACT SOLUTION.

 NO OUTPUT CONTROL FOR STRESS PERIOD   25   TIME STEP 1078

 -------------------------------------------------------------------------------
                             SWR1 OUTPUT PRINT TIMES
                        STRESS PERIOD   25   TIME STEP  1078
 --------------- --------------- --------------- --------------- ---------------
     0.21576E+06                                                                
 -------------------------------------------------------------------------------
 
 SOLVING FOR HEAD 
 INITIAL HNEW IS AN EXACT SOLUTION.

 NO OUTPUT CONTROL FOR STRESS PERIOD   25   TIME STEP 1079

 -------------------------------------------------------------------------------
                             SWR1 OUTPUT PRINT TIMES
                        STRESS PERIOD   25   TIME STEP  1079
 --------------- --------------- --------------- --------------- ---------------
     0.21588E+06                                                                
 -------------------------------------------------------------------------------
 
 SOLVING FOR HEAD 
 INITIAL HNEW IS AN EXACT SOLUTION.

 NO OUTPUT CONTROL FOR STRESS PERIOD   25   TIME STEP 1080

 -------------------------------------------------------------------------------
                             SWR1 OUTPUT PRINT TIMES
                        STRESS PERIOD   25   TIME STEP  1080
 --------------- --------------- --------------- --------------- ---------------
     0.21600E+06                                                                
 -------------------------------------------------------------------------------
 
 SOLVING FOR HEAD 
 INITIAL HNEW IS AN EXACT SOLUTION.

 NO OUTPUT CONTROL FOR STRESS PERIOD   25   TIME STEP 1081

 -------------------------------------------------------------------------------
                             SWR1 OUTPUT PRINT TIMES
                        STRESS PERIOD   25   TIME STEP  1081
 --------------- --------------- --------------- --------------- ---------------
     0.21612E+06                                                                
 -------------------------------------------------------------------------------
 
 SOLVING FOR HEAD 
 INITIAL HNEW IS AN EXACT SOLUTION.

 NO OUTPUT CONTROL FOR STRESS PERIOD   25   TIME STEP 1082

 -------------------------------------------------------------------------------
                             SWR1 OUTPUT PRINT TIMES
                        STRESS PERIOD   25   TIME STEP  1082
 --------------- --------------- --------------- --------------- ---------------
     0.21624E+06                                                                
 -------------------------------------------------------------------------------
 
 SOLVING FOR HEAD 
 INITIAL HNEW IS AN EXACT SOLUTION.

 NO OUTPUT CONTROL FOR STRESS PERIOD   25   TIME STEP 1083

 -------------------------------------------------------------------------------
                             SWR1 OUTPUT PRINT TIMES
                        STRESS PERIOD   25   TIME STEP  1083
 --------------- --------------- --------------- --------------- ---------------
     0.21636E+06                                                                
 -------------------------------------------------------------------------------
 
 SOLVING FOR HEAD 
 INITIAL HNEW IS AN EXACT SOLUTION.

 NO OUTPUT CONTROL FOR STRESS PERIOD   25   TIME STEP 1084

 -------------------------------------------------------------------------------
                             SWR1 OUTPUT PRINT TIMES
                        STRESS PERIOD   25   TIME STEP  1084
 --------------- --------------- --------------- --------------- ---------------
     0.21648E+06                                                                
 -------------------------------------------------------------------------------
 
 SOLVING FOR HEAD 
 INITIAL HNEW IS AN EXACT SOLUTION.

 NO OUTPUT CONTROL FOR STRESS PERIOD   25   TIME STEP 1085

 -------------------------------------------------------------------------------
                             SWR1 OUTPUT PRINT TIMES
                        STRESS PERIOD   25   TIME STEP  1085
 --------------- --------------- --------------- --------------- ---------------
     0.21660E+06                                                                
 -------------------------------------------------------------------------------
 
 SOLVING FOR HEAD 
 INITIAL HNEW IS AN EXACT SOLUTION.

 NO OUTPUT CONTROL FOR STRESS PERIOD   25   TIME STEP 1086

 -------------------------------------------------------------------------------
                             SWR1 OUTPUT PRINT TIMES
                        STRESS PERIOD   25   TIME STEP  1086
 --------------- --------------- --------------- --------------- ---------------
     0.21672E+06                                                                
 -------------------------------------------------------------------------------
 
 SOLVING FOR HEAD 
 INITIAL HNEW IS AN EXACT SOLUTION.

 NO OUTPUT CONTROL FOR STRESS PERIOD   25   TIME STEP 1087

 -------------------------------------------------------------------------------
                             SWR1 OUTPUT PRINT TIMES
                        STRESS PERIOD   25   TIME STEP  1087
 --------------- --------------- --------------- --------------- ---------------
     0.21684E+06                                                                
 -------------------------------------------------------------------------------
 
 SOLVING FOR HEAD 
 INITIAL HNEW IS AN EXACT SOLUTION.

 NO OUTPUT CONTROL FOR STRESS PERIOD   25   TIME STEP 1088

 -------------------------------------------------------------------------------
                             SWR1 OUTPUT PRINT TIMES
                        STRESS PERIOD   25   TIME STEP  1088
 --------------- --------------- --------------- --------------- ---------------
     0.21696E+06                                                                
 -------------------------------------------------------------------------------
 
 SOLVING FOR HEAD 
 INITIAL HNEW IS AN EXACT SOLUTION.

 NO OUTPUT CONTROL FOR STRESS PERIOD   25   TIME STEP 1089

 -------------------------------------------------------------------------------
                             SWR1 OUTPUT PRINT TIMES
                        STRESS PERIOD   25   TIME STEP  1089
 --------------- --------------- --------------- --------------- ---------------
     0.21708E+06                                                                
 -------------------------------------------------------------------------------
 
 SOLVING FOR HEAD 
 INITIAL HNEW IS AN EXACT SOLUTION.

 NO OUTPUT CONTROL FOR STRESS PERIOD   25   TIME STEP 1090

 -------------------------------------------------------------------------------
                             SWR1 OUTPUT PRINT TIMES
                        STRESS PERIOD   25   TIME STEP  1090
 --------------- --------------- --------------- --------------- ---------------
     0.21720E+06                                                                
 -------------------------------------------------------------------------------
 
 SOLVING FOR HEAD 
 INITIAL HNEW IS AN EXACT SOLUTION.

 NO OUTPUT CONTROL FOR STRESS PERIOD   25   TIME STEP 1091

 -------------------------------------------------------------------------------
                             SWR1 OUTPUT PRINT TIMES
                        STRESS PERIOD   25   TIME STEP  1091
 --------------- --------------- --------------- --------------- ---------------
     0.21732E+06                                                                
 -------------------------------------------------------------------------------
 
 SOLVING FOR HEAD 
 INITIAL HNEW IS AN EXACT SOLUTION.

 NO OUTPUT CONTROL FOR STRESS PERIOD   25   TIME STEP 1092

 -------------------------------------------------------------------------------
                             SWR1 OUTPUT PRINT TIMES
                        STRESS PERIOD   25   TIME STEP  1092
 --------------- --------------- --------------- --------------- ---------------
     0.21744E+06                                                                
 -------------------------------------------------------------------------------
 
 SOLVING FOR HEAD 
 INITIAL HNEW IS AN EXACT SOLUTION.

 NO OUTPUT CONTROL FOR STRESS PERIOD   25   TIME STEP 1093

 -------------------------------------------------------------------------------
                             SWR1 OUTPUT PRINT TIMES
                        STRESS PERIOD   25   TIME STEP  1093
 --------------- --------------- --------------- --------------- ---------------
     0.21756E+06                                                                
 -------------------------------------------------------------------------------
 
 SOLVING FOR HEAD 
 INITIAL HNEW IS AN EXACT SOLUTION.

 NO OUTPUT CONTROL FOR STRESS PERIOD   25   TIME STEP 1094

 -------------------------------------------------------------------------------
                             SWR1 OUTPUT PRINT TIMES
                        STRESS PERIOD   25   TIME STEP  1094
 --------------- --------------- --------------- --------------- ---------------
     0.21768E+06                                                                
 -------------------------------------------------------------------------------
 
 SOLVING FOR HEAD 
 INITIAL HNEW IS AN EXACT SOLUTION.

 NO OUTPUT CONTROL FOR STRESS PERIOD   25   TIME STEP 1095

 -------------------------------------------------------------------------------
                             SWR1 OUTPUT PRINT TIMES
                        STRESS PERIOD   25   TIME STEP  1095
 --------------- --------------- --------------- --------------- ---------------
     0.21780E+06                                                                
 -------------------------------------------------------------------------------
 
 SOLVING FOR HEAD 
 INITIAL HNEW IS AN EXACT SOLUTION.

 NO OUTPUT CONTROL FOR STRESS PERIOD   25   TIME STEP 1096

 -------------------------------------------------------------------------------
                             SWR1 OUTPUT PRINT TIMES
                        STRESS PERIOD   25   TIME STEP  1096
 --------------- --------------- --------------- --------------- ---------------
     0.21792E+06                                                                
 -------------------------------------------------------------------------------
 
 SOLVING FOR HEAD 
 INITIAL HNEW IS AN EXACT SOLUTION.

 NO OUTPUT CONTROL FOR STRESS PERIOD   25   TIME STEP 1097

 -------------------------------------------------------------------------------
                             SWR1 OUTPUT PRINT TIMES
                        STRESS PERIOD   25   TIME STEP  1097
 --------------- --------------- --------------- --------------- ---------------
     0.21804E+06                                                                
 -------------------------------------------------------------------------------
 
 SOLVING FOR HEAD 
 INITIAL HNEW IS AN EXACT SOLUTION.

 NO OUTPUT CONTROL FOR STRESS PERIOD   25   TIME STEP 1098

 -------------------------------------------------------------------------------
                             SWR1 OUTPUT PRINT TIMES
                        STRESS PERIOD   25   TIME STEP  1098
 --------------- --------------- --------------- --------------- ---------------
     0.21816E+06                                                                
 -------------------------------------------------------------------------------
 
 SOLVING FOR HEAD 
 INITIAL HNEW IS AN EXACT SOLUTION.

 NO OUTPUT CONTROL FOR STRESS PERIOD   25   TIME STEP 1099

 -------------------------------------------------------------------------------
                             SWR1 OUTPUT PRINT TIMES
                        STRESS PERIOD   25   TIME STEP  1099
 --------------- --------------- --------------- --------------- ---------------
     0.21828E+06                                                                
 -------------------------------------------------------------------------------
 
 SOLVING FOR HEAD 
 INITIAL HNEW IS AN EXACT SOLUTION.

 NO OUTPUT CONTROL FOR STRESS PERIOD   25   TIME STEP 1100

 -------------------------------------------------------------------------------
                             SWR1 OUTPUT PRINT TIMES
                        STRESS PERIOD   25   TIME STEP  1100
 --------------- --------------- --------------- --------------- ---------------
     0.21840E+06                                                                
 -------------------------------------------------------------------------------
 
 SOLVING FOR HEAD 
 INITIAL HNEW IS AN EXACT SOLUTION.

 NO OUTPUT CONTROL FOR STRESS PERIOD   25   TIME STEP 1101

 -------------------------------------------------------------------------------
                             SWR1 OUTPUT PRINT TIMES
                        STRESS PERIOD   25   TIME STEP  1101
 --------------- --------------- --------------- --------------- ---------------
     0.21852E+06                                                                
 -------------------------------------------------------------------------------
 
 SOLVING FOR HEAD 
 INITIAL HNEW IS AN EXACT SOLUTION.

 NO OUTPUT CONTROL FOR STRESS PERIOD   25   TIME STEP 1102

 -------------------------------------------------------------------------------
                             SWR1 OUTPUT PRINT TIMES
                        STRESS PERIOD   25   TIME STEP  1102
 --------------- --------------- --------------- --------------- ---------------
     0.21864E+06                                                                
 -------------------------------------------------------------------------------
 
 SOLVING FOR HEAD 
 INITIAL HNEW IS AN EXACT SOLUTION.

 NO OUTPUT CONTROL FOR STRESS PERIOD   25   TIME STEP 1103

 -------------------------------------------------------------------------------
                             SWR1 OUTPUT PRINT TIMES
                        STRESS PERIOD   25   TIME STEP  1103
 --------------- --------------- --------------- --------------- ---------------
     0.21876E+06                                                                
 -------------------------------------------------------------------------------
 
 SOLVING FOR HEAD 
 INITIAL HNEW IS AN EXACT SOLUTION.

 NO OUTPUT CONTROL FOR STRESS PERIOD   25   TIME STEP 1104

 -------------------------------------------------------------------------------
                             SWR1 OUTPUT PRINT TIMES
                        STRESS PERIOD   25   TIME STEP  1104
 --------------- --------------- --------------- --------------- ---------------
     0.21888E+06                                                                
 -------------------------------------------------------------------------------
 
 SOLVING FOR HEAD 
 INITIAL HNEW IS AN EXACT SOLUTION.

 NO OUTPUT CONTROL FOR STRESS PERIOD   25   TIME STEP 1105

 -------------------------------------------------------------------------------
                             SWR1 OUTPUT PRINT TIMES
                        STRESS PERIOD   25   TIME STEP  1105
 --------------- --------------- --------------- --------------- ---------------
     0.21900E+06                                                                
 -------------------------------------------------------------------------------
 
 SOLVING FOR HEAD 
 INITIAL HNEW IS AN EXACT SOLUTION.

 NO OUTPUT CONTROL FOR STRESS PERIOD   25   TIME STEP 1106

 -------------------------------------------------------------------------------
                             SWR1 OUTPUT PRINT TIMES
                        STRESS PERIOD   25   TIME STEP  1106
 --------------- --------------- --------------- --------------- ---------------
     0.21912E+06                                                                
 -------------------------------------------------------------------------------
 
 SOLVING FOR HEAD 
 INITIAL HNEW IS AN EXACT SOLUTION.

 NO OUTPUT CONTROL FOR STRESS PERIOD   25   TIME STEP 1107

 -------------------------------------------------------------------------------
                             SWR1 OUTPUT PRINT TIMES
                        STRESS PERIOD   25   TIME STEP  1107
 --------------- --------------- --------------- --------------- ---------------
     0.21924E+06                                                                
 -------------------------------------------------------------------------------
 
 SOLVING FOR HEAD 
 INITIAL HNEW IS AN EXACT SOLUTION.

 NO OUTPUT CONTROL FOR STRESS PERIOD   25   TIME STEP 1108

 -------------------------------------------------------------------------------
                             SWR1 OUTPUT PRINT TIMES
                        STRESS PERIOD   25   TIME STEP  1108
 --------------- --------------- --------------- --------------- ---------------
     0.21936E+06                                                                
 -------------------------------------------------------------------------------
 
 SOLVING FOR HEAD 
 INITIAL HNEW IS AN EXACT SOLUTION.

 NO OUTPUT CONTROL FOR STRESS PERIOD   25   TIME STEP 1109

 -------------------------------------------------------------------------------
                             SWR1 OUTPUT PRINT TIMES
                        STRESS PERIOD   25   TIME STEP  1109
 --------------- --------------- --------------- --------------- ---------------
     0.21948E+06                                                                
 -------------------------------------------------------------------------------
 
 SOLVING FOR HEAD 
 INITIAL HNEW IS AN EXACT SOLUTION.

 NO OUTPUT CONTROL FOR STRESS PERIOD   25   TIME STEP 1110

 -------------------------------------------------------------------------------
                             SWR1 OUTPUT PRINT TIMES
                        STRESS PERIOD   25   TIME STEP  1110
 --------------- --------------- --------------- --------------- ---------------
     0.21960E+06                                                                
 -------------------------------------------------------------------------------
 
 SOLVING FOR HEAD 
 INITIAL HNEW IS AN EXACT SOLUTION.

 NO OUTPUT CONTROL FOR STRESS PERIOD   25   TIME STEP 1111

 -------------------------------------------------------------------------------
                             SWR1 OUTPUT PRINT TIMES
                        STRESS PERIOD   25   TIME STEP  1111
 --------------- --------------- --------------- --------------- ---------------
     0.21972E+06                                                                
 -------------------------------------------------------------------------------
 
 SOLVING FOR HEAD 
 INITIAL HNEW IS AN EXACT SOLUTION.

 NO OUTPUT CONTROL FOR STRESS PERIOD   25   TIME STEP 1112

 -------------------------------------------------------------------------------
                             SWR1 OUTPUT PRINT TIMES
                        STRESS PERIOD   25   TIME STEP  1112
 --------------- --------------- --------------- --------------- ---------------
     0.21984E+06                                                                
 -------------------------------------------------------------------------------
 
 SOLVING FOR HEAD 
 INITIAL HNEW IS AN EXACT SOLUTION.

 NO OUTPUT CONTROL FOR STRESS PERIOD   25   TIME STEP 1113

 -------------------------------------------------------------------------------
                             SWR1 OUTPUT PRINT TIMES
                        STRESS PERIOD   25   TIME STEP  1113
 --------------- --------------- --------------- --------------- ---------------
     0.21996E+06                                                                
 -------------------------------------------------------------------------------
 
 SOLVING FOR HEAD 
 INITIAL HNEW IS AN EXACT SOLUTION.

 NO OUTPUT CONTROL FOR STRESS PERIOD   25   TIME STEP 1114

 -------------------------------------------------------------------------------
                             SWR1 OUTPUT PRINT TIMES
                        STRESS PERIOD   25   TIME STEP  1114
 --------------- --------------- --------------- --------------- ---------------
     0.22008E+06                                                                
 -------------------------------------------------------------------------------
 
 SOLVING FOR HEAD 
 INITIAL HNEW IS AN EXACT SOLUTION.

 NO OUTPUT CONTROL FOR STRESS PERIOD   25   TIME STEP 1115

 -------------------------------------------------------------------------------
                             SWR1 OUTPUT PRINT TIMES
                        STRESS PERIOD   25   TIME STEP  1115
 --------------- --------------- --------------- --------------- ---------------
     0.22020E+06                                                                
 -------------------------------------------------------------------------------
 
 SOLVING FOR HEAD 
 INITIAL HNEW IS AN EXACT SOLUTION.

 NO OUTPUT CONTROL FOR STRESS PERIOD   25   TIME STEP 1116

 -------------------------------------------------------------------------------
                             SWR1 OUTPUT PRINT TIMES
                        STRESS PERIOD   25   TIME STEP  1116
 --------------- --------------- --------------- --------------- ---------------
     0.22032E+06                                                                
 -------------------------------------------------------------------------------
 
 SOLVING FOR HEAD 
 INITIAL HNEW IS AN EXACT SOLUTION.

 NO OUTPUT CONTROL FOR STRESS PERIOD   25   TIME STEP 1117

 -------------------------------------------------------------------------------
                             SWR1 OUTPUT PRINT TIMES
                        STRESS PERIOD   25   TIME STEP  1117
 --------------- --------------- --------------- --------------- ---------------
     0.22044E+06                                                                
 -------------------------------------------------------------------------------
 
 SOLVING FOR HEAD 
 INITIAL HNEW IS AN EXACT SOLUTION.

 NO OUTPUT CONTROL FOR STRESS PERIOD   25   TIME STEP 1118

 -------------------------------------------------------------------------------
                             SWR1 OUTPUT PRINT TIMES
                        STRESS PERIOD   25   TIME STEP  1118
 --------------- --------------- --------------- --------------- ---------------
     0.22056E+06                                                                
 -------------------------------------------------------------------------------
 
 SOLVING FOR HEAD 
 INITIAL HNEW IS AN EXACT SOLUTION.

 NO OUTPUT CONTROL FOR STRESS PERIOD   25   TIME STEP 1119

 -------------------------------------------------------------------------------
                             SWR1 OUTPUT PRINT TIMES
                        STRESS PERIOD   25   TIME STEP  1119
 --------------- --------------- --------------- --------------- ---------------
     0.22068E+06                                                                
 -------------------------------------------------------------------------------
 
 SOLVING FOR HEAD 
 INITIAL HNEW IS AN EXACT SOLUTION.

 NO OUTPUT CONTROL FOR STRESS PERIOD   25   TIME STEP 1120

 -------------------------------------------------------------------------------
                             SWR1 OUTPUT PRINT TIMES
                        STRESS PERIOD   25   TIME STEP  1120
 --------------- --------------- --------------- --------------- ---------------
     0.22080E+06                                                                
 -------------------------------------------------------------------------------
 
 SOLVING FOR HEAD 
 INITIAL HNEW IS AN EXACT SOLUTION.

 NO OUTPUT CONTROL FOR STRESS PERIOD   25   TIME STEP 1121

 -------------------------------------------------------------------------------
                             SWR1 OUTPUT PRINT TIMES
                        STRESS PERIOD   25   TIME STEP  1121
 --------------- --------------- --------------- --------------- ---------------
     0.22092E+06                                                                
 -------------------------------------------------------------------------------
 
 SOLVING FOR HEAD 
 INITIAL HNEW IS AN EXACT SOLUTION.

 NO OUTPUT CONTROL FOR STRESS PERIOD   25   TIME STEP 1122

 -------------------------------------------------------------------------------
                             SWR1 OUTPUT PRINT TIMES
                        STRESS PERIOD   25   TIME STEP  1122
 --------------- --------------- --------------- --------------- ---------------
     0.22104E+06                                                                
 -------------------------------------------------------------------------------
 
 SOLVING FOR HEAD 
 INITIAL HNEW IS AN EXACT SOLUTION.

 NO OUTPUT CONTROL FOR STRESS PERIOD   25   TIME STEP 1123

 -------------------------------------------------------------------------------
                             SWR1 OUTPUT PRINT TIMES
                        STRESS PERIOD   25   TIME STEP  1123
 --------------- --------------- --------------- --------------- ---------------
     0.22116E+06                                                                
 -------------------------------------------------------------------------------
 
 SOLVING FOR HEAD 
 INITIAL HNEW IS AN EXACT SOLUTION.

 NO OUTPUT CONTROL FOR STRESS PERIOD   25   TIME STEP 1124

 -------------------------------------------------------------------------------
                             SWR1 OUTPUT PRINT TIMES
                        STRESS PERIOD   25   TIME STEP  1124
 --------------- --------------- --------------- --------------- ---------------
     0.22128E+06                                                                
 -------------------------------------------------------------------------------
 
 SOLVING FOR HEAD 
 INITIAL HNEW IS AN EXACT SOLUTION.

 NO OUTPUT CONTROL FOR STRESS PERIOD   25   TIME STEP 1125

 -------------------------------------------------------------------------------
                             SWR1 OUTPUT PRINT TIMES
                        STRESS PERIOD   25   TIME STEP  1125
 --------------- --------------- --------------- --------------- ---------------
     0.22140E+06                                                                
 -------------------------------------------------------------------------------
 
 SOLVING FOR HEAD 
 INITIAL HNEW IS AN EXACT SOLUTION.

 NO OUTPUT CONTROL FOR STRESS PERIOD   25   TIME STEP 1126

 -------------------------------------------------------------------------------
                             SWR1 OUTPUT PRINT TIMES
                        STRESS PERIOD   25   TIME STEP  1126
 --------------- --------------- --------------- --------------- ---------------
     0.22152E+06                                                                
 -------------------------------------------------------------------------------
 
 SOLVING FOR HEAD 
 INITIAL HNEW IS AN EXACT SOLUTION.

 NO OUTPUT CONTROL FOR STRESS PERIOD   25   TIME STEP 1127

 -------------------------------------------------------------------------------
                             SWR1 OUTPUT PRINT TIMES
                        STRESS PERIOD   25   TIME STEP  1127
 --------------- --------------- --------------- --------------- ---------------
     0.22164E+06                                                                
 -------------------------------------------------------------------------------
 
 SOLVING FOR HEAD 
 INITIAL HNEW IS AN EXACT SOLUTION.

 NO OUTPUT CONTROL FOR STRESS PERIOD   25   TIME STEP 1128

 -------------------------------------------------------------------------------
                             SWR1 OUTPUT PRINT TIMES
                        STRESS PERIOD   25   TIME STEP  1128
 --------------- --------------- --------------- --------------- ---------------
     0.22176E+06                                                                
 -------------------------------------------------------------------------------
 
 SOLVING FOR HEAD 
 INITIAL HNEW IS AN EXACT SOLUTION.

 NO OUTPUT CONTROL FOR STRESS PERIOD   25   TIME STEP 1129

 -------------------------------------------------------------------------------
                             SWR1 OUTPUT PRINT TIMES
                        STRESS PERIOD   25   TIME STEP  1129
 --------------- --------------- --------------- --------------- ---------------
     0.22188E+06                                                                
 -------------------------------------------------------------------------------
 
 SOLVING FOR HEAD 
 INITIAL HNEW IS AN EXACT SOLUTION.

 NO OUTPUT CONTROL FOR STRESS PERIOD   25   TIME STEP 1130

 -------------------------------------------------------------------------------
                             SWR1 OUTPUT PRINT TIMES
                        STRESS PERIOD   25   TIME STEP  1130
 --------------- --------------- --------------- --------------- ---------------
     0.22200E+06                                                                
 -------------------------------------------------------------------------------
 
 SOLVING FOR HEAD 
 INITIAL HNEW IS AN EXACT SOLUTION.

 NO OUTPUT CONTROL FOR STRESS PERIOD   25   TIME STEP 1131

 -------------------------------------------------------------------------------
                             SWR1 OUTPUT PRINT TIMES
                        STRESS PERIOD   25   TIME STEP  1131
 --------------- --------------- --------------- --------------- ---------------
     0.22212E+06                                                                
 -------------------------------------------------------------------------------
 
 SOLVING FOR HEAD 
 INITIAL HNEW IS AN EXACT SOLUTION.

 NO OUTPUT CONTROL FOR STRESS PERIOD   25   TIME STEP 1132

 -------------------------------------------------------------------------------
                             SWR1 OUTPUT PRINT TIMES
                        STRESS PERIOD   25   TIME STEP  1132
 --------------- --------------- --------------- --------------- ---------------
     0.22224E+06                                                                
 -------------------------------------------------------------------------------
 
 SOLVING FOR HEAD 
 INITIAL HNEW IS AN EXACT SOLUTION.

 NO OUTPUT CONTROL FOR STRESS PERIOD   25   TIME STEP 1133

 -------------------------------------------------------------------------------
                             SWR1 OUTPUT PRINT TIMES
                        STRESS PERIOD   25   TIME STEP  1133
 --------------- --------------- --------------- --------------- ---------------
     0.22236E+06                                                                
 -------------------------------------------------------------------------------
 
 SOLVING FOR HEAD 
 INITIAL HNEW IS AN EXACT SOLUTION.

 NO OUTPUT CONTROL FOR STRESS PERIOD   25   TIME STEP 1134

 -------------------------------------------------------------------------------
                             SWR1 OUTPUT PRINT TIMES
                        STRESS PERIOD   25   TIME STEP  1134
 --------------- --------------- --------------- --------------- ---------------
     0.22248E+06                                                                
 -------------------------------------------------------------------------------
 
 SOLVING FOR HEAD 
 INITIAL HNEW IS AN EXACT SOLUTION.

 NO OUTPUT CONTROL FOR STRESS PERIOD   25   TIME STEP 1135

 -------------------------------------------------------------------------------
                             SWR1 OUTPUT PRINT TIMES
                        STRESS PERIOD   25   TIME STEP  1135
 --------------- --------------- --------------- --------------- ---------------
     0.22260E+06                                                                
 -------------------------------------------------------------------------------
 
 SOLVING FOR HEAD 
 INITIAL HNEW IS AN EXACT SOLUTION.

 NO OUTPUT CONTROL FOR STRESS PERIOD   25   TIME STEP 1136

 -------------------------------------------------------------------------------
                             SWR1 OUTPUT PRINT TIMES
                        STRESS PERIOD   25   TIME STEP  1136
 --------------- --------------- --------------- --------------- ---------------
     0.22272E+06                                                                
 -------------------------------------------------------------------------------
 
 SOLVING FOR HEAD 
 INITIAL HNEW IS AN EXACT SOLUTION.

 NO OUTPUT CONTROL FOR STRESS PERIOD   25   TIME STEP 1137

 -------------------------------------------------------------------------------
                             SWR1 OUTPUT PRINT TIMES
                        STRESS PERIOD   25   TIME STEP  1137
 --------------- --------------- --------------- --------------- ---------------
     0.22284E+06                                                                
 -------------------------------------------------------------------------------
 
 SOLVING FOR HEAD 
 INITIAL HNEW IS AN EXACT SOLUTION.

 NO OUTPUT CONTROL FOR STRESS PERIOD   25   TIME STEP 1138

 -------------------------------------------------------------------------------
                             SWR1 OUTPUT PRINT TIMES
                        STRESS PERIOD   25   TIME STEP  1138
 --------------- --------------- --------------- --------------- ---------------
     0.22296E+06                                                                
 -------------------------------------------------------------------------------
 
 SOLVING FOR HEAD 
 INITIAL HNEW IS AN EXACT SOLUTION.

 NO OUTPUT CONTROL FOR STRESS PERIOD   25   TIME STEP 1139

 -------------------------------------------------------------------------------
                             SWR1 OUTPUT PRINT TIMES
                        STRESS PERIOD   25   TIME STEP  1139
 --------------- --------------- --------------- --------------- ---------------
     0.22308E+06                                                                
 -------------------------------------------------------------------------------
 
 SOLVING FOR HEAD 
 INITIAL HNEW IS AN EXACT SOLUTION.

 NO OUTPUT CONTROL FOR STRESS PERIOD   25   TIME STEP 1140

 -------------------------------------------------------------------------------
                             SWR1 OUTPUT PRINT TIMES
                        STRESS PERIOD   25   TIME STEP  1140
 --------------- --------------- --------------- --------------- ---------------
     0.22320E+06                                                                
 -------------------------------------------------------------------------------
 
 SOLVING FOR HEAD 
 INITIAL HNEW IS AN EXACT SOLUTION.

 NO OUTPUT CONTROL FOR STRESS PERIOD   25   TIME STEP 1141

 -------------------------------------------------------------------------------
                             SWR1 OUTPUT PRINT TIMES
                        STRESS PERIOD   25   TIME STEP  1141
 --------------- --------------- --------------- --------------- ---------------
     0.22332E+06                                                                
 -------------------------------------------------------------------------------
 
 SOLVING FOR HEAD 
 INITIAL HNEW IS AN EXACT SOLUTION.

 NO OUTPUT CONTROL FOR STRESS PERIOD   25   TIME STEP 1142

 -------------------------------------------------------------------------------
                             SWR1 OUTPUT PRINT TIMES
                        STRESS PERIOD   25   TIME STEP  1142
 --------------- --------------- --------------- --------------- ---------------
     0.22344E+06                                                                
 -------------------------------------------------------------------------------
 
 SOLVING FOR HEAD 
 INITIAL HNEW IS AN EXACT SOLUTION.

 NO OUTPUT CONTROL FOR STRESS PERIOD   25   TIME STEP 1143

 -------------------------------------------------------------------------------
                             SWR1 OUTPUT PRINT TIMES
                        STRESS PERIOD   25   TIME STEP  1143
 --------------- --------------- --------------- --------------- ---------------
     0.22356E+06                                                                
 -------------------------------------------------------------------------------
 
 SOLVING FOR HEAD 
 INITIAL HNEW IS AN EXACT SOLUTION.

 NO OUTPUT CONTROL FOR STRESS PERIOD   25   TIME STEP 1144

 -------------------------------------------------------------------------------
                             SWR1 OUTPUT PRINT TIMES
                        STRESS PERIOD   25   TIME STEP  1144
 --------------- --------------- --------------- --------------- ---------------
     0.22368E+06                                                                
 -------------------------------------------------------------------------------
 
 SOLVING FOR HEAD 
 INITIAL HNEW IS AN EXACT SOLUTION.

 NO OUTPUT CONTROL FOR STRESS PERIOD   25   TIME STEP 1145

 -------------------------------------------------------------------------------
                             SWR1 OUTPUT PRINT TIMES
                        STRESS PERIOD   25   TIME STEP  1145
 --------------- --------------- --------------- --------------- ---------------
     0.22380E+06                                                                
 -------------------------------------------------------------------------------
 
 SOLVING FOR HEAD 
 INITIAL HNEW IS AN EXACT SOLUTION.

 NO OUTPUT CONTROL FOR STRESS PERIOD   25   TIME STEP 1146

 -------------------------------------------------------------------------------
                             SWR1 OUTPUT PRINT TIMES
                        STRESS PERIOD   25   TIME STEP  1146
 --------------- --------------- --------------- --------------- ---------------
     0.22392E+06                                                                
 -------------------------------------------------------------------------------
 
 SOLVING FOR HEAD 
 INITIAL HNEW IS AN EXACT SOLUTION.

 NO OUTPUT CONTROL FOR STRESS PERIOD   25   TIME STEP 1147

 -------------------------------------------------------------------------------
                             SWR1 OUTPUT PRINT TIMES
                        STRESS PERIOD   25   TIME STEP  1147
 --------------- --------------- --------------- --------------- ---------------
     0.22404E+06                                                                
 -------------------------------------------------------------------------------
 
 SOLVING FOR HEAD 
 INITIAL HNEW IS AN EXACT SOLUTION.

 NO OUTPUT CONTROL FOR STRESS PERIOD   25   TIME STEP 1148

 -------------------------------------------------------------------------------
                             SWR1 OUTPUT PRINT TIMES
                        STRESS PERIOD   25   TIME STEP  1148
 --------------- --------------- --------------- --------------- ---------------
     0.22416E+06                                                                
 -------------------------------------------------------------------------------
 
 SOLVING FOR HEAD 
 INITIAL HNEW IS AN EXACT SOLUTION.

 NO OUTPUT CONTROL FOR STRESS PERIOD   25   TIME STEP 1149

 -------------------------------------------------------------------------------
                             SWR1 OUTPUT PRINT TIMES
                        STRESS PERIOD   25   TIME STEP  1149
 --------------- --------------- --------------- --------------- ---------------
     0.22428E+06                                                                
 -------------------------------------------------------------------------------
 
 SOLVING FOR HEAD 
 INITIAL HNEW IS AN EXACT SOLUTION.

 NO OUTPUT CONTROL FOR STRESS PERIOD   25   TIME STEP 1150

 -------------------------------------------------------------------------------
                             SWR1 OUTPUT PRINT TIMES
                        STRESS PERIOD   25   TIME STEP  1150
 --------------- --------------- --------------- --------------- ---------------
     0.22440E+06                                                                
 -------------------------------------------------------------------------------
 
 SOLVING FOR HEAD 
 INITIAL HNEW IS AN EXACT SOLUTION.

 NO OUTPUT CONTROL FOR STRESS PERIOD   25   TIME STEP 1151

 -------------------------------------------------------------------------------
                             SWR1 OUTPUT PRINT TIMES
                        STRESS PERIOD   25   TIME STEP  1151
 --------------- --------------- --------------- --------------- ---------------
     0.22452E+06                                                                
 -------------------------------------------------------------------------------
 
 SOLVING FOR HEAD 
 INITIAL HNEW IS AN EXACT SOLUTION.

 NO OUTPUT CONTROL FOR STRESS PERIOD   25   TIME STEP 1152

 -------------------------------------------------------------------------------
                             SWR1 OUTPUT PRINT TIMES
                        STRESS PERIOD   25   TIME STEP  1152
 --------------- --------------- --------------- --------------- ---------------
     0.22464E+06                                                                
 -------------------------------------------------------------------------------
 
 SOLVING FOR HEAD 
 INITIAL HNEW IS AN EXACT SOLUTION.

 NO OUTPUT CONTROL FOR STRESS PERIOD   25   TIME STEP 1153

 -------------------------------------------------------------------------------
                             SWR1 OUTPUT PRINT TIMES
                        STRESS PERIOD   25   TIME STEP  1153
 --------------- --------------- --------------- --------------- ---------------
     0.22476E+06                                                                
 -------------------------------------------------------------------------------
 
 SOLVING FOR HEAD 
 INITIAL HNEW IS AN EXACT SOLUTION.

 NO OUTPUT CONTROL FOR STRESS PERIOD   25   TIME STEP 1154

 -------------------------------------------------------------------------------
                             SWR1 OUTPUT PRINT TIMES
                        STRESS PERIOD   25   TIME STEP  1154
 --------------- --------------- --------------- --------------- ---------------
     0.22488E+06                                                                
 -------------------------------------------------------------------------------
 
 SOLVING FOR HEAD 
 INITIAL HNEW IS AN EXACT SOLUTION.

 NO OUTPUT CONTROL FOR STRESS PERIOD   25   TIME STEP 1155

 -------------------------------------------------------------------------------
                             SWR1 OUTPUT PRINT TIMES
                        STRESS PERIOD   25   TIME STEP  1155
 --------------- --------------- --------------- --------------- ---------------
     0.22500E+06                                                                
 -------------------------------------------------------------------------------
 
 SOLVING FOR HEAD 
 INITIAL HNEW IS AN EXACT SOLUTION.

 NO OUTPUT CONTROL FOR STRESS PERIOD   25   TIME STEP 1156

 -------------------------------------------------------------------------------
                             SWR1 OUTPUT PRINT TIMES
                        STRESS PERIOD   25   TIME STEP  1156
 --------------- --------------- --------------- --------------- ---------------
     0.22512E+06                                                                
 -------------------------------------------------------------------------------
 
 SOLVING FOR HEAD 
 INITIAL HNEW IS AN EXACT SOLUTION.

 NO OUTPUT CONTROL FOR STRESS PERIOD   25   TIME STEP 1157

 -------------------------------------------------------------------------------
                             SWR1 OUTPUT PRINT TIMES
                        STRESS PERIOD   25   TIME STEP  1157
 --------------- --------------- --------------- --------------- ---------------
     0.22524E+06                                                                
 -------------------------------------------------------------------------------
 
 SOLVING FOR HEAD 
 INITIAL HNEW IS AN EXACT SOLUTION.

 NO OUTPUT CONTROL FOR STRESS PERIOD   25   TIME STEP 1158

 -------------------------------------------------------------------------------
                             SWR1 OUTPUT PRINT TIMES
                        STRESS PERIOD   25   TIME STEP  1158
 --------------- --------------- --------------- --------------- ---------------
     0.22536E+06                                                                
 -------------------------------------------------------------------------------
 
 SOLVING FOR HEAD 
 INITIAL HNEW IS AN EXACT SOLUTION.

 NO OUTPUT CONTROL FOR STRESS PERIOD   25   TIME STEP 1159

 -------------------------------------------------------------------------------
                             SWR1 OUTPUT PRINT TIMES
                        STRESS PERIOD   25   TIME STEP  1159
 --------------- --------------- --------------- --------------- ---------------
     0.22548E+06                                                                
 -------------------------------------------------------------------------------
 
 SOLVING FOR HEAD 
 INITIAL HNEW IS AN EXACT SOLUTION.

 NO OUTPUT CONTROL FOR STRESS PERIOD   25   TIME STEP 1160

 -------------------------------------------------------------------------------
                             SWR1 OUTPUT PRINT TIMES
                        STRESS PERIOD   25   TIME STEP  1160
 --------------- --------------- --------------- --------------- ---------------
     0.22560E+06                                                                
 -------------------------------------------------------------------------------
 
 SOLVING FOR HEAD 
 INITIAL HNEW IS AN EXACT SOLUTION.

 NO OUTPUT CONTROL FOR STRESS PERIOD   25   TIME STEP 1161

 -------------------------------------------------------------------------------
                             SWR1 OUTPUT PRINT TIMES
                        STRESS PERIOD   25   TIME STEP  1161
 --------------- --------------- --------------- --------------- ---------------
     0.22572E+06                                                                
 -------------------------------------------------------------------------------
 
 SOLVING FOR HEAD 
 INITIAL HNEW IS AN EXACT SOLUTION.

 NO OUTPUT CONTROL FOR STRESS PERIOD   25   TIME STEP 1162

 -------------------------------------------------------------------------------
                             SWR1 OUTPUT PRINT TIMES
                        STRESS PERIOD   25   TIME STEP  1162
 --------------- --------------- --------------- --------------- ---------------
     0.22584E+06                                                                
 -------------------------------------------------------------------------------
 
 SOLVING FOR HEAD 
 INITIAL HNEW IS AN EXACT SOLUTION.

 NO OUTPUT CONTROL FOR STRESS PERIOD   25   TIME STEP 1163

 -------------------------------------------------------------------------------
                             SWR1 OUTPUT PRINT TIMES
                        STRESS PERIOD   25   TIME STEP  1163
 --------------- --------------- --------------- --------------- ---------------
     0.22596E+06                                                                
 -------------------------------------------------------------------------------
 
 SOLVING FOR HEAD 
 INITIAL HNEW IS AN EXACT SOLUTION.

 NO OUTPUT CONTROL FOR STRESS PERIOD   25   TIME STEP 1164

 -------------------------------------------------------------------------------
                             SWR1 OUTPUT PRINT TIMES
                        STRESS PERIOD   25   TIME STEP  1164
 --------------- --------------- --------------- --------------- ---------------
     0.22608E+06                                                                
 -------------------------------------------------------------------------------
 
 SOLVING FOR HEAD 
 INITIAL HNEW IS AN EXACT SOLUTION.

 NO OUTPUT CONTROL FOR STRESS PERIOD   25   TIME STEP 1165

 -------------------------------------------------------------------------------
                             SWR1 OUTPUT PRINT TIMES
                        STRESS PERIOD   25   TIME STEP  1165
 --------------- --------------- --------------- --------------- ---------------
     0.22620E+06                                                                
 -------------------------------------------------------------------------------
 
 SOLVING FOR HEAD 
 INITIAL HNEW IS AN EXACT SOLUTION.

 NO OUTPUT CONTROL FOR STRESS PERIOD   25   TIME STEP 1166

 -------------------------------------------------------------------------------
                             SWR1 OUTPUT PRINT TIMES
                        STRESS PERIOD   25   TIME STEP  1166
 --------------- --------------- --------------- --------------- ---------------
     0.22632E+06                                                                
 -------------------------------------------------------------------------------
 
 SOLVING FOR HEAD 
 INITIAL HNEW IS AN EXACT SOLUTION.

 NO OUTPUT CONTROL FOR STRESS PERIOD   25   TIME STEP 1167

 -------------------------------------------------------------------------------
                             SWR1 OUTPUT PRINT TIMES
                        STRESS PERIOD   25   TIME STEP  1167
 --------------- --------------- --------------- --------------- ---------------
     0.22644E+06                                                                
 -------------------------------------------------------------------------------
 
 SOLVING FOR HEAD 
 INITIAL HNEW IS AN EXACT SOLUTION.

 NO OUTPUT CONTROL FOR STRESS PERIOD   25   TIME STEP 1168

 -------------------------------------------------------------------------------
                             SWR1 OUTPUT PRINT TIMES
                        STRESS PERIOD   25   TIME STEP  1168
 --------------- --------------- --------------- --------------- ---------------
     0.22656E+06                                                                
 -------------------------------------------------------------------------------
 
 SOLVING FOR HEAD 
 INITIAL HNEW IS AN EXACT SOLUTION.

 NO OUTPUT CONTROL FOR STRESS PERIOD   25   TIME STEP 1169

 -------------------------------------------------------------------------------
                             SWR1 OUTPUT PRINT TIMES
                        STRESS PERIOD   25   TIME STEP  1169
 --------------- --------------- --------------- --------------- ---------------
     0.22668E+06                                                                
 -------------------------------------------------------------------------------
 
 SOLVING FOR HEAD 
 INITIAL HNEW IS AN EXACT SOLUTION.

 NO OUTPUT CONTROL FOR STRESS PERIOD   25   TIME STEP 1170

 -------------------------------------------------------------------------------
                             SWR1 OUTPUT PRINT TIMES
                        STRESS PERIOD   25   TIME STEP  1170
 --------------- --------------- --------------- --------------- ---------------
     0.22680E+06                                                                
 -------------------------------------------------------------------------------
 
 SOLVING FOR HEAD 
 INITIAL HNEW IS AN EXACT SOLUTION.

 NO OUTPUT CONTROL FOR STRESS PERIOD   25   TIME STEP 1171

 -------------------------------------------------------------------------------
                             SWR1 OUTPUT PRINT TIMES
                        STRESS PERIOD   25   TIME STEP  1171
 --------------- --------------- --------------- --------------- ---------------
     0.22692E+06                                                                
 -------------------------------------------------------------------------------
 
 SOLVING FOR HEAD 
 INITIAL HNEW IS AN EXACT SOLUTION.

 NO OUTPUT CONTROL FOR STRESS PERIOD   25   TIME STEP 1172

 -------------------------------------------------------------------------------
                             SWR1 OUTPUT PRINT TIMES
                        STRESS PERIOD   25   TIME STEP  1172
 --------------- --------------- --------------- --------------- ---------------
     0.22704E+06                                                                
 -------------------------------------------------------------------------------
 
 SOLVING FOR HEAD 
 INITIAL HNEW IS AN EXACT SOLUTION.

 NO OUTPUT CONTROL FOR STRESS PERIOD   25   TIME STEP 1173

 -------------------------------------------------------------------------------
                             SWR1 OUTPUT PRINT TIMES
                        STRESS PERIOD   25   TIME STEP  1173
 --------------- --------------- --------------- --------------- ---------------
     0.22716E+06                                                                
 -------------------------------------------------------------------------------
 
 SOLVING FOR HEAD 
 INITIAL HNEW IS AN EXACT SOLUTION.

 NO OUTPUT CONTROL FOR STRESS PERIOD   25   TIME STEP 1174

 -------------------------------------------------------------------------------
                             SWR1 OUTPUT PRINT TIMES
                        STRESS PERIOD   25   TIME STEP  1174
 --------------- --------------- --------------- --------------- ---------------
     0.22728E+06                                                                
 -------------------------------------------------------------------------------
 
 SOLVING FOR HEAD 
 INITIAL HNEW IS AN EXACT SOLUTION.

 NO OUTPUT CONTROL FOR STRESS PERIOD   25   TIME STEP 1175

 -------------------------------------------------------------------------------
                             SWR1 OUTPUT PRINT TIMES
                        STRESS PERIOD   25   TIME STEP  1175
 --------------- --------------- --------------- --------------- ---------------
     0.22740E+06                                                                
 -------------------------------------------------------------------------------
 
 SOLVING FOR HEAD 
 INITIAL HNEW IS AN EXACT SOLUTION.

 NO OUTPUT CONTROL FOR STRESS PERIOD   25   TIME STEP 1176

 -------------------------------------------------------------------------------
                             SWR1 OUTPUT PRINT TIMES
                        STRESS PERIOD   25   TIME STEP  1176
 --------------- --------------- --------------- --------------- ---------------
     0.22752E+06                                                                
 -------------------------------------------------------------------------------
 
 SOLVING FOR HEAD 
 INITIAL HNEW IS AN EXACT SOLUTION.

 NO OUTPUT CONTROL FOR STRESS PERIOD   25   TIME STEP 1177

 -------------------------------------------------------------------------------
                             SWR1 OUTPUT PRINT TIMES
                        STRESS PERIOD   25   TIME STEP  1177
 --------------- --------------- --------------- --------------- ---------------
     0.22764E+06                                                                
 -------------------------------------------------------------------------------
 
 SOLVING FOR HEAD 
 INITIAL HNEW IS AN EXACT SOLUTION.

 NO OUTPUT CONTROL FOR STRESS PERIOD   25   TIME STEP 1178

 -------------------------------------------------------------------------------
                             SWR1 OUTPUT PRINT TIMES
                        STRESS PERIOD   25   TIME STEP  1178
 --------------- --------------- --------------- --------------- ---------------
     0.22776E+06                                                                
 -------------------------------------------------------------------------------
 
 SOLVING FOR HEAD 
 INITIAL HNEW IS AN EXACT SOLUTION.

 NO OUTPUT CONTROL FOR STRESS PERIOD   25   TIME STEP 1179

 -------------------------------------------------------------------------------
                             SWR1 OUTPUT PRINT TIMES
                        STRESS PERIOD   25   TIME STEP  1179
 --------------- --------------- --------------- --------------- ---------------
     0.22788E+06                                                                
 -------------------------------------------------------------------------------
 
 SOLVING FOR HEAD 
 INITIAL HNEW IS AN EXACT SOLUTION.

 NO OUTPUT CONTROL FOR STRESS PERIOD   25   TIME STEP 1180

 -------------------------------------------------------------------------------
                             SWR1 OUTPUT PRINT TIMES
                        STRESS PERIOD   25   TIME STEP  1180
 --------------- --------------- --------------- --------------- ---------------
     0.22800E+06                                                                
 -------------------------------------------------------------------------------
 
 SOLVING FOR HEAD 
 INITIAL HNEW IS AN EXACT SOLUTION.

 NO OUTPUT CONTROL FOR STRESS PERIOD   25   TIME STEP 1181

 -------------------------------------------------------------------------------
                             SWR1 OUTPUT PRINT TIMES
                        STRESS PERIOD   25   TIME STEP  1181
 --------------- --------------- --------------- --------------- ---------------
     0.22812E+06                                                                
 -------------------------------------------------------------------------------
 
 SOLVING FOR HEAD 
 INITIAL HNEW IS AN EXACT SOLUTION.

 NO OUTPUT CONTROL FOR STRESS PERIOD   25   TIME STEP 1182

 -------------------------------------------------------------------------------
                             SWR1 OUTPUT PRINT TIMES
                        STRESS PERIOD   25   TIME STEP  1182
 --------------- --------------- --------------- --------------- ---------------
     0.22824E+06                                                                
 -------------------------------------------------------------------------------
 
 SOLVING FOR HEAD 
 INITIAL HNEW IS AN EXACT SOLUTION.

 NO OUTPUT CONTROL FOR STRESS PERIOD   25   TIME STEP 1183

 -------------------------------------------------------------------------------
                             SWR1 OUTPUT PRINT TIMES
                        STRESS PERIOD   25   TIME STEP  1183
 --------------- --------------- --------------- --------------- ---------------
     0.22836E+06                                                                
 -------------------------------------------------------------------------------
 
 SOLVING FOR HEAD 
 INITIAL HNEW IS AN EXACT SOLUTION.

 NO OUTPUT CONTROL FOR STRESS PERIOD   25   TIME STEP 1184

 -------------------------------------------------------------------------------
                             SWR1 OUTPUT PRINT TIMES
                        STRESS PERIOD   25   TIME STEP  1184
 --------------- --------------- --------------- --------------- ---------------
     0.22848E+06                                                                
 -------------------------------------------------------------------------------
 
 SOLVING FOR HEAD 
 INITIAL HNEW IS AN EXACT SOLUTION.

 NO OUTPUT CONTROL FOR STRESS PERIOD   25   TIME STEP 1185

 -------------------------------------------------------------------------------
                             SWR1 OUTPUT PRINT TIMES
                        STRESS PERIOD   25   TIME STEP  1185
 --------------- --------------- --------------- --------------- ---------------
     0.22860E+06                                                                
 -------------------------------------------------------------------------------
 
 SOLVING FOR HEAD 
 INITIAL HNEW IS AN EXACT SOLUTION.

 NO OUTPUT CONTROL FOR STRESS PERIOD   25   TIME STEP 1186

 -------------------------------------------------------------------------------
                             SWR1 OUTPUT PRINT TIMES
                        STRESS PERIOD   25   TIME STEP  1186
 --------------- --------------- --------------- --------------- ---------------
     0.22872E+06                                                                
 -------------------------------------------------------------------------------
 
 SOLVING FOR HEAD 
 INITIAL HNEW IS AN EXACT SOLUTION.

 NO OUTPUT CONTROL FOR STRESS PERIOD   25   TIME STEP 1187

 -------------------------------------------------------------------------------
                             SWR1 OUTPUT PRINT TIMES
                        STRESS PERIOD   25   TIME STEP  1187
 --------------- --------------- --------------- --------------- ---------------
     0.22884E+06                                                                
 -------------------------------------------------------------------------------
 
 SOLVING FOR HEAD 
 INITIAL HNEW IS AN EXACT SOLUTION.

 NO OUTPUT CONTROL FOR STRESS PERIOD   25   TIME STEP 1188

 -------------------------------------------------------------------------------
                             SWR1 OUTPUT PRINT TIMES
                        STRESS PERIOD   25   TIME STEP  1188
 --------------- --------------- --------------- --------------- ---------------
     0.22896E+06                                                                
 -------------------------------------------------------------------------------
 
 SOLVING FOR HEAD 
 INITIAL HNEW IS AN EXACT SOLUTION.

 NO OUTPUT CONTROL FOR STRESS PERIOD   25   TIME STEP 1189

 -------------------------------------------------------------------------------
                             SWR1 OUTPUT PRINT TIMES
                        STRESS PERIOD   25   TIME STEP  1189
 --------------- --------------- --------------- --------------- ---------------
     0.22908E+06                                                                
 -------------------------------------------------------------------------------
 
 SOLVING FOR HEAD 
 INITIAL HNEW IS AN EXACT SOLUTION.

 NO OUTPUT CONTROL FOR STRESS PERIOD   25   TIME STEP 1190

 -------------------------------------------------------------------------------
                             SWR1 OUTPUT PRINT TIMES
                        STRESS PERIOD   25   TIME STEP  1190
 --------------- --------------- --------------- --------------- ---------------
     0.22920E+06                                                                
 -------------------------------------------------------------------------------
 
 SOLVING FOR HEAD 
 INITIAL HNEW IS AN EXACT SOLUTION.

 NO OUTPUT CONTROL FOR STRESS PERIOD   25   TIME STEP 1191

 -------------------------------------------------------------------------------
                             SWR1 OUTPUT PRINT TIMES
                        STRESS PERIOD   25   TIME STEP  1191
 --------------- --------------- --------------- --------------- ---------------
     0.22932E+06                                                                
 -------------------------------------------------------------------------------
 
 SOLVING FOR HEAD 
 INITIAL HNEW IS AN EXACT SOLUTION.

 NO OUTPUT CONTROL FOR STRESS PERIOD   25   TIME STEP 1192

 -------------------------------------------------------------------------------
                             SWR1 OUTPUT PRINT TIMES
                        STRESS PERIOD   25   TIME STEP  1192
 --------------- --------------- --------------- --------------- ---------------
     0.22944E+06                                                                
 -------------------------------------------------------------------------------
 
 SOLVING FOR HEAD 
 INITIAL HNEW IS AN EXACT SOLUTION.

 NO OUTPUT CONTROL FOR STRESS PERIOD   25   TIME STEP 1193

 -------------------------------------------------------------------------------
                             SWR1 OUTPUT PRINT TIMES
                        STRESS PERIOD   25   TIME STEP  1193
 --------------- --------------- --------------- --------------- ---------------
     0.22956E+06                                                                
 -------------------------------------------------------------------------------
 
 SOLVING FOR HEAD 
 INITIAL HNEW IS AN EXACT SOLUTION.

 NO OUTPUT CONTROL FOR STRESS PERIOD   25   TIME STEP 1194

 -------------------------------------------------------------------------------
                             SWR1 OUTPUT PRINT TIMES
                        STRESS PERIOD   25   TIME STEP  1194
 --------------- --------------- --------------- --------------- ---------------
     0.22968E+06                                                                
 -------------------------------------------------------------------------------
 
 SOLVING FOR HEAD 
 INITIAL HNEW IS AN EXACT SOLUTION.

 NO OUTPUT CONTROL FOR STRESS PERIOD   25   TIME STEP 1195

 -------------------------------------------------------------------------------
                             SWR1 OUTPUT PRINT TIMES
                        STRESS PERIOD   25   TIME STEP  1195
 --------------- --------------- --------------- --------------- ---------------
     0.22980E+06                                                                
 -------------------------------------------------------------------------------
 
 SOLVING FOR HEAD 
 INITIAL HNEW IS AN EXACT SOLUTION.

 NO OUTPUT CONTROL FOR STRESS PERIOD   25   TIME STEP 1196

 -------------------------------------------------------------------------------
                             SWR1 OUTPUT PRINT TIMES
                        STRESS PERIOD   25   TIME STEP  1196
 --------------- --------------- --------------- --------------- ---------------
     0.22992E+06                                                                
 -------------------------------------------------------------------------------
 
 SOLVING FOR HEAD 
 INITIAL HNEW IS AN EXACT SOLUTION.

 NO OUTPUT CONTROL FOR STRESS PERIOD   25   TIME STEP 1197

 -------------------------------------------------------------------------------
                             SWR1 OUTPUT PRINT TIMES
                        STRESS PERIOD   25   TIME STEP  1197
 --------------- --------------- --------------- --------------- ---------------
     0.23004E+06                                                                
 -------------------------------------------------------------------------------
 
 SOLVING FOR HEAD 
 INITIAL HNEW IS AN EXACT SOLUTION.

 NO OUTPUT CONTROL FOR STRESS PERIOD   25   TIME STEP 1198

 -------------------------------------------------------------------------------
                             SWR1 OUTPUT PRINT TIMES
                        STRESS PERIOD   25   TIME STEP  1198
 --------------- --------------- --------------- --------------- ---------------
     0.23016E+06                                                                
 -------------------------------------------------------------------------------
 
 SOLVING FOR HEAD 
 INITIAL HNEW IS AN EXACT SOLUTION.

 NO OUTPUT CONTROL FOR STRESS PERIOD   25   TIME STEP 1199

 -------------------------------------------------------------------------------
                             SWR1 OUTPUT PRINT TIMES
                        STRESS PERIOD   25   TIME STEP  1199
 --------------- --------------- --------------- --------------- ---------------
     0.23028E+06                                                                
 -------------------------------------------------------------------------------
 
 SOLVING FOR HEAD 
 INITIAL HNEW IS AN EXACT SOLUTION.

 NO OUTPUT CONTROL FOR STRESS PERIOD   25   TIME STEP 1200

 -------------------------------------------------------------------------------
                             SWR1 OUTPUT PRINT TIMES
                        STRESS PERIOD   25   TIME STEP  1200
 --------------- --------------- --------------- --------------- ---------------
     0.23040E+06                                                                
 -------------------------------------------------------------------------------
 
 SOLVING FOR HEAD 
 INITIAL HNEW IS AN EXACT SOLUTION.

 NO OUTPUT CONTROL FOR STRESS PERIOD   25   TIME STEP 1201

 -------------------------------------------------------------------------------
                             SWR1 OUTPUT PRINT TIMES
                        STRESS PERIOD   25   TIME STEP  1201
 --------------- --------------- --------------- --------------- ---------------
     0.23052E+06                                                                
 -------------------------------------------------------------------------------
 
 SOLVING FOR HEAD 
 INITIAL HNEW IS AN EXACT SOLUTION.

 NO OUTPUT CONTROL FOR STRESS PERIOD   25   TIME STEP 1202

 -------------------------------------------------------------------------------
                             SWR1 OUTPUT PRINT TIMES
                        STRESS PERIOD   25   TIME STEP  1202
 --------------- --------------- --------------- --------------- ---------------
     0.23064E+06                                                                
 -------------------------------------------------------------------------------
 
 SOLVING FOR HEAD 
 INITIAL HNEW IS AN EXACT SOLUTION.

 NO OUTPUT CONTROL FOR STRESS PERIOD   25   TIME STEP 1203

 -------------------------------------------------------------------------------
                             SWR1 OUTPUT PRINT TIMES
                        STRESS PERIOD   25   TIME STEP  1203
 --------------- --------------- --------------- --------------- ---------------
     0.23076E+06                                                                
 -------------------------------------------------------------------------------
 
 SOLVING FOR HEAD 
 INITIAL HNEW IS AN EXACT SOLUTION.

 NO OUTPUT CONTROL FOR STRESS PERIOD   25   TIME STEP 1204

 -------------------------------------------------------------------------------
                             SWR1 OUTPUT PRINT TIMES
                        STRESS PERIOD   25   TIME STEP  1204
 --------------- --------------- --------------- --------------- ---------------
     0.23088E+06                                                                
 -------------------------------------------------------------------------------
 
 SOLVING FOR HEAD 
 INITIAL HNEW IS AN EXACT SOLUTION.

 NO OUTPUT CONTROL FOR STRESS PERIOD   25   TIME STEP 1205

 -------------------------------------------------------------------------------
                             SWR1 OUTPUT PRINT TIMES
                        STRESS PERIOD   25   TIME STEP  1205
 --------------- --------------- --------------- --------------- ---------------
     0.23100E+06                                                                
 -------------------------------------------------------------------------------
 
 SOLVING FOR HEAD 
 INITIAL HNEW IS AN EXACT SOLUTION.

 NO OUTPUT CONTROL FOR STRESS PERIOD   25   TIME STEP 1206

 -------------------------------------------------------------------------------
                             SWR1 OUTPUT PRINT TIMES
                        STRESS PERIOD   25   TIME STEP  1206
 --------------- --------------- --------------- --------------- ---------------
     0.23112E+06                                                                
 -------------------------------------------------------------------------------
 
 SOLVING FOR HEAD 
 INITIAL HNEW IS AN EXACT SOLUTION.

 NO OUTPUT CONTROL FOR STRESS PERIOD   25   TIME STEP 1207

 -------------------------------------------------------------------------------
                             SWR1 OUTPUT PRINT TIMES
                        STRESS PERIOD   25   TIME STEP  1207
 --------------- --------------- --------------- --------------- ---------------
     0.23124E+06                                                                
 -------------------------------------------------------------------------------
 
 SOLVING FOR HEAD 
 INITIAL HNEW IS AN EXACT SOLUTION.

 NO OUTPUT CONTROL FOR STRESS PERIOD   25   TIME STEP 1208

 -------------------------------------------------------------------------------
                             SWR1 OUTPUT PRINT TIMES
                        STRESS PERIOD   25   TIME STEP  1208
 --------------- --------------- --------------- --------------- ---------------
     0.23136E+06                                                                
 -------------------------------------------------------------------------------
 
 SOLVING FOR HEAD 
 INITIAL HNEW IS AN EXACT SOLUTION.

 NO OUTPUT CONTROL FOR STRESS PERIOD   25   TIME STEP 1209

 -------------------------------------------------------------------------------
                             SWR1 OUTPUT PRINT TIMES
                        STRESS PERIOD   25   TIME STEP  1209
 --------------- --------------- --------------- --------------- ---------------
     0.23148E+06                                                                
 -------------------------------------------------------------------------------
 
 SOLVING FOR HEAD 
 INITIAL HNEW IS AN EXACT SOLUTION.

 NO OUTPUT CONTROL FOR STRESS PERIOD   25   TIME STEP 1210

 -------------------------------------------------------------------------------
                             SWR1 OUTPUT PRINT TIMES
                        STRESS PERIOD   25   TIME STEP  1210
 --------------- --------------- --------------- --------------- ---------------
     0.23160E+06                                                                
 -------------------------------------------------------------------------------
 
 SOLVING FOR HEAD 
 INITIAL HNEW IS AN EXACT SOLUTION.

 NO OUTPUT CONTROL FOR STRESS PERIOD   25   TIME STEP 1211

 -------------------------------------------------------------------------------
                             SWR1 OUTPUT PRINT TIMES
                        STRESS PERIOD   25   TIME STEP  1211
 --------------- --------------- --------------- --------------- ---------------
     0.23172E+06                                                                
 -------------------------------------------------------------------------------
 
 SOLVING FOR HEAD 
 INITIAL HNEW IS AN EXACT SOLUTION.

 NO OUTPUT CONTROL FOR STRESS PERIOD   25   TIME STEP 1212

 -------------------------------------------------------------------------------
                             SWR1 OUTPUT PRINT TIMES
                        STRESS PERIOD   25   TIME STEP  1212
 --------------- --------------- --------------- --------------- ---------------
     0.23184E+06                                                                
 -------------------------------------------------------------------------------
 
 SOLVING FOR HEAD 
 INITIAL HNEW IS AN EXACT SOLUTION.

 NO OUTPUT CONTROL FOR STRESS PERIOD   25   TIME STEP 1213

 -------------------------------------------------------------------------------
                             SWR1 OUTPUT PRINT TIMES
                        STRESS PERIOD   25   TIME STEP  1213
 --------------- --------------- --------------- --------------- ---------------
     0.23196E+06                                                                
 -------------------------------------------------------------------------------
 
 SOLVING FOR HEAD 
 INITIAL HNEW IS AN EXACT SOLUTION.

 NO OUTPUT CONTROL FOR STRESS PERIOD   25   TIME STEP 1214

 -------------------------------------------------------------------------------
                             SWR1 OUTPUT PRINT TIMES
                        STRESS PERIOD   25   TIME STEP  1214
 --------------- --------------- --------------- --------------- ---------------
     0.23208E+06                                                                
 -------------------------------------------------------------------------------
 
 SOLVING FOR HEAD 
 INITIAL HNEW IS AN EXACT SOLUTION.

 NO OUTPUT CONTROL FOR STRESS PERIOD   25   TIME STEP 1215

 -------------------------------------------------------------------------------
                             SWR1 OUTPUT PRINT TIMES
                        STRESS PERIOD   25   TIME STEP  1215
 --------------- --------------- --------------- --------------- ---------------
     0.23220E+06                                                                
 -------------------------------------------------------------------------------
 
 SOLVING FOR HEAD 
 INITIAL HNEW IS AN EXACT SOLUTION.

 NO OUTPUT CONTROL FOR STRESS PERIOD   25   TIME STEP 1216

 -------------------------------------------------------------------------------
                             SWR1 OUTPUT PRINT TIMES
                        STRESS PERIOD   25   TIME STEP  1216
 --------------- --------------- --------------- --------------- ---------------
     0.23232E+06                                                                
 -------------------------------------------------------------------------------
 
 SOLVING FOR HEAD 
 INITIAL HNEW IS AN EXACT SOLUTION.

 NO OUTPUT CONTROL FOR STRESS PERIOD   25   TIME STEP 1217

 -------------------------------------------------------------------------------
                             SWR1 OUTPUT PRINT TIMES
                        STRESS PERIOD   25   TIME STEP  1217
 --------------- --------------- --------------- --------------- ---------------
     0.23244E+06                                                                
 -------------------------------------------------------------------------------
 
 SOLVING FOR HEAD 
 INITIAL HNEW IS AN EXACT SOLUTION.

 NO OUTPUT CONTROL FOR STRESS PERIOD   25   TIME STEP 1218

 -------------------------------------------------------------------------------
                             SWR1 OUTPUT PRINT TIMES
                        STRESS PERIOD   25   TIME STEP  1218
 --------------- --------------- --------------- --------------- ---------------
     0.23256E+06                                                                
 -------------------------------------------------------------------------------
 
 SOLVING FOR HEAD 
 INITIAL HNEW IS AN EXACT SOLUTION.

 NO OUTPUT CONTROL FOR STRESS PERIOD   25   TIME STEP 1219

 -------------------------------------------------------------------------------
                             SWR1 OUTPUT PRINT TIMES
                        STRESS PERIOD   25   TIME STEP  1219
 --------------- --------------- --------------- --------------- ---------------
     0.23268E+06                                                                
 -------------------------------------------------------------------------------
 
 SOLVING FOR HEAD 
 INITIAL HNEW IS AN EXACT SOLUTION.

 NO OUTPUT CONTROL FOR STRESS PERIOD   25   TIME STEP 1220

 -------------------------------------------------------------------------------
                             SWR1 OUTPUT PRINT TIMES
                        STRESS PERIOD   25   TIME STEP  1220
 --------------- --------------- --------------- --------------- ---------------
     0.23280E+06                                                                
 -------------------------------------------------------------------------------
 
 SOLVING FOR HEAD 
 INITIAL HNEW IS AN EXACT SOLUTION.

 NO OUTPUT CONTROL FOR STRESS PERIOD   25   TIME STEP 1221

 -------------------------------------------------------------------------------
                             SWR1 OUTPUT PRINT TIMES
                        STRESS PERIOD   25   TIME STEP  1221
 --------------- --------------- --------------- --------------- ---------------
     0.23292E+06                                                                
 -------------------------------------------------------------------------------
 
 SOLVING FOR HEAD 
 INITIAL HNEW IS AN EXACT SOLUTION.

 NO OUTPUT CONTROL FOR STRESS PERIOD   25   TIME STEP 1222

 -------------------------------------------------------------------------------
                             SWR1 OUTPUT PRINT TIMES
                        STRESS PERIOD   25   TIME STEP  1222
 --------------- --------------- --------------- --------------- ---------------
     0.23304E+06                                                                
 -------------------------------------------------------------------------------
 
 SOLVING FOR HEAD 
 INITIAL HNEW IS AN EXACT SOLUTION.

 NO OUTPUT CONTROL FOR STRESS PERIOD   25   TIME STEP 1223

 -------------------------------------------------------------------------------
                             SWR1 OUTPUT PRINT TIMES
                        STRESS PERIOD   25   TIME STEP  1223
 --------------- --------------- --------------- --------------- ---------------
     0.23316E+06                                                                
 -------------------------------------------------------------------------------
 
 SOLVING FOR HEAD 
 INITIAL HNEW IS AN EXACT SOLUTION.

 NO OUTPUT CONTROL FOR STRESS PERIOD   25   TIME STEP 1224

 -------------------------------------------------------------------------------
                             SWR1 OUTPUT PRINT TIMES
                        STRESS PERIOD   25   TIME STEP  1224
 --------------- --------------- --------------- --------------- ---------------
     0.23328E+06                                                                
 -------------------------------------------------------------------------------
 
 SOLVING FOR HEAD 
 INITIAL HNEW IS AN EXACT SOLUTION.

 NO OUTPUT CONTROL FOR STRESS PERIOD   25   TIME STEP 1225

 -------------------------------------------------------------------------------
                             SWR1 OUTPUT PRINT TIMES
                        STRESS PERIOD   25   TIME STEP  1225
 --------------- --------------- --------------- --------------- ---------------
     0.23340E+06                                                                
 -------------------------------------------------------------------------------
 
 SOLVING FOR HEAD 
 INITIAL HNEW IS AN EXACT SOLUTION.

 NO OUTPUT CONTROL FOR STRESS PERIOD   25   TIME STEP 1226

 -------------------------------------------------------------------------------
                             SWR1 OUTPUT PRINT TIMES
                        STRESS PERIOD   25   TIME STEP  1226
 --------------- --------------- --------------- --------------- ---------------
     0.23352E+06                                                                
 -------------------------------------------------------------------------------
 
 SOLVING FOR HEAD 
 INITIAL HNEW IS AN EXACT SOLUTION.

 NO OUTPUT CONTROL FOR STRESS PERIOD   25   TIME STEP 1227

 -------------------------------------------------------------------------------
                             SWR1 OUTPUT PRINT TIMES
                        STRESS PERIOD   25   TIME STEP  1227
 --------------- --------------- --------------- --------------- ---------------
     0.23364E+06                                                                
 -------------------------------------------------------------------------------
 
 SOLVING FOR HEAD 
 INITIAL HNEW IS AN EXACT SOLUTION.

 NO OUTPUT CONTROL FOR STRESS PERIOD   25   TIME STEP 1228

 -------------------------------------------------------------------------------
                             SWR1 OUTPUT PRINT TIMES
                        STRESS PERIOD   25   TIME STEP  1228
 --------------- --------------- --------------- --------------- ---------------
     0.23376E+06                                                                
 -------------------------------------------------------------------------------
 
 SOLVING FOR HEAD 
 INITIAL HNEW IS AN EXACT SOLUTION.

 NO OUTPUT CONTROL FOR STRESS PERIOD   25   TIME STEP 1229

 -------------------------------------------------------------------------------
                             SWR1 OUTPUT PRINT TIMES
                        STRESS PERIOD   25   TIME STEP  1229
 --------------- --------------- --------------- --------------- ---------------
     0.23388E+06                                                                
 -------------------------------------------------------------------------------
 
 SOLVING FOR HEAD 
 INITIAL HNEW IS AN EXACT SOLUTION.

 NO OUTPUT CONTROL FOR STRESS PERIOD   25   TIME STEP 1230

 -------------------------------------------------------------------------------
                             SWR1 OUTPUT PRINT TIMES
                        STRESS PERIOD   25   TIME STEP  1230
 --------------- --------------- --------------- --------------- ---------------
     0.23400E+06                                                                
 -------------------------------------------------------------------------------
 
 SOLVING FOR HEAD 
 INITIAL HNEW IS AN EXACT SOLUTION.

 NO OUTPUT CONTROL FOR STRESS PERIOD   25   TIME STEP 1231

 -------------------------------------------------------------------------------
                             SWR1 OUTPUT PRINT TIMES
                        STRESS PERIOD   25   TIME STEP  1231
 --------------- --------------- --------------- --------------- ---------------
     0.23412E+06                                                                
 -------------------------------------------------------------------------------
 
 SOLVING FOR HEAD 
 INITIAL HNEW IS AN EXACT SOLUTION.

 NO OUTPUT CONTROL FOR STRESS PERIOD   25   TIME STEP 1232

 -------------------------------------------------------------------------------
                             SWR1 OUTPUT PRINT TIMES
                        STRESS PERIOD   25   TIME STEP  1232
 --------------- --------------- --------------- --------------- ---------------
     0.23424E+06                                                                
 -------------------------------------------------------------------------------
 
 SOLVING FOR HEAD 
 INITIAL HNEW IS AN EXACT SOLUTION.

 NO OUTPUT CONTROL FOR STRESS PERIOD   25   TIME STEP 1233

 -------------------------------------------------------------------------------
                             SWR1 OUTPUT PRINT TIMES
                        STRESS PERIOD   25   TIME STEP  1233
 --------------- --------------- --------------- --------------- ---------------
     0.23436E+06                                                                
 -------------------------------------------------------------------------------
 
 SOLVING FOR HEAD 
 INITIAL HNEW IS AN EXACT SOLUTION.

 NO OUTPUT CONTROL FOR STRESS PERIOD   25   TIME STEP 1234

 -------------------------------------------------------------------------------
                             SWR1 OUTPUT PRINT TIMES
                        STRESS PERIOD   25   TIME STEP  1234
 --------------- --------------- --------------- --------------- ---------------
     0.23448E+06                                                                
 -------------------------------------------------------------------------------
 
 SOLVING FOR HEAD 
 INITIAL HNEW IS AN EXACT SOLUTION.

 NO OUTPUT CONTROL FOR STRESS PERIOD   25   TIME STEP 1235

 -------------------------------------------------------------------------------
                             SWR1 OUTPUT PRINT TIMES
                        STRESS PERIOD   25   TIME STEP  1235
 --------------- --------------- --------------- --------------- ---------------
     0.23460E+06                                                                
 -------------------------------------------------------------------------------
 
 SOLVING FOR HEAD 
 INITIAL HNEW IS AN EXACT SOLUTION.

 NO OUTPUT CONTROL FOR STRESS PERIOD   25   TIME STEP 1236

 -------------------------------------------------------------------------------
                             SWR1 OUTPUT PRINT TIMES
                        STRESS PERIOD   25   TIME STEP  1236
 --------------- --------------- --------------- --------------- ---------------
     0.23472E+06                                                                
 -------------------------------------------------------------------------------
 
 SOLVING FOR HEAD 
 INITIAL HNEW IS AN EXACT SOLUTION.

 NO OUTPUT CONTROL FOR STRESS PERIOD   25   TIME STEP 1237

 -------------------------------------------------------------------------------
                             SWR1 OUTPUT PRINT TIMES
                        STRESS PERIOD   25   TIME STEP  1237
 --------------- --------------- --------------- --------------- ---------------
     0.23484E+06                                                                
 -------------------------------------------------------------------------------
 
 SOLVING FOR HEAD 
 INITIAL HNEW IS AN EXACT SOLUTION.

 NO OUTPUT CONTROL FOR STRESS PERIOD   25   TIME STEP 1238

 -------------------------------------------------------------------------------
                             SWR1 OUTPUT PRINT TIMES
                        STRESS PERIOD   25   TIME STEP  1238
 --------------- --------------- --------------- --------------- ---------------
     0.23496E+06                                                                
 -------------------------------------------------------------------------------
 
 SOLVING FOR HEAD 
 INITIAL HNEW IS AN EXACT SOLUTION.

 NO OUTPUT CONTROL FOR STRESS PERIOD   25   TIME STEP 1239

 -------------------------------------------------------------------------------
                             SWR1 OUTPUT PRINT TIMES
                        STRESS PERIOD   25   TIME STEP  1239
 --------------- --------------- --------------- --------------- ---------------
     0.23508E+06                                                                
 -------------------------------------------------------------------------------
 
 SOLVING FOR HEAD 
 INITIAL HNEW IS AN EXACT SOLUTION.

 NO OUTPUT CONTROL FOR STRESS PERIOD   25   TIME STEP 1240

 -------------------------------------------------------------------------------
                             SWR1 OUTPUT PRINT TIMES
                        STRESS PERIOD   25   TIME STEP  1240
 --------------- --------------- --------------- --------------- ---------------
     0.23520E+06                                                                
 -------------------------------------------------------------------------------
 
 SOLVING FOR HEAD 
 INITIAL HNEW IS AN EXACT SOLUTION.

 NO OUTPUT CONTROL FOR STRESS PERIOD   25   TIME STEP 1241

 -------------------------------------------------------------------------------
                             SWR1 OUTPUT PRINT TIMES
                        STRESS PERIOD   25   TIME STEP  1241
 --------------- --------------- --------------- --------------- ---------------
     0.23532E+06                                                                
 -------------------------------------------------------------------------------
 
 SOLVING FOR HEAD 
 INITIAL HNEW IS AN EXACT SOLUTION.

 NO OUTPUT CONTROL FOR STRESS PERIOD   25   TIME STEP 1242

 -------------------------------------------------------------------------------
                             SWR1 OUTPUT PRINT TIMES
                        STRESS PERIOD   25   TIME STEP  1242
 --------------- --------------- --------------- --------------- ---------------
     0.23544E+06                                                                
 -------------------------------------------------------------------------------
 
 SOLVING FOR HEAD 
 INITIAL HNEW IS AN EXACT SOLUTION.

 NO OUTPUT CONTROL FOR STRESS PERIOD   25   TIME STEP 1243

 -------------------------------------------------------------------------------
                             SWR1 OUTPUT PRINT TIMES
                        STRESS PERIOD   25   TIME STEP  1243
 --------------- --------------- --------------- --------------- ---------------
     0.23556E+06                                                                
 -------------------------------------------------------------------------------
 
 SOLVING FOR HEAD 
 INITIAL HNEW IS AN EXACT SOLUTION.

 NO OUTPUT CONTROL FOR STRESS PERIOD   25   TIME STEP 1244

 -------------------------------------------------------------------------------
                             SWR1 OUTPUT PRINT TIMES
                        STRESS PERIOD   25   TIME STEP  1244
 --------------- --------------- --------------- --------------- ---------------
     0.23568E+06                                                                
 -------------------------------------------------------------------------------
 
 SOLVING FOR HEAD 
 INITIAL HNEW IS AN EXACT SOLUTION.

 NO OUTPUT CONTROL FOR STRESS PERIOD   25   TIME STEP 1245

 -------------------------------------------------------------------------------
                             SWR1 OUTPUT PRINT TIMES
                        STRESS PERIOD   25   TIME STEP  1245
 --------------- --------------- --------------- --------------- ---------------
     0.23580E+06                                                                
 -------------------------------------------------------------------------------
 
 SOLVING FOR HEAD 
 INITIAL HNEW IS AN EXACT SOLUTION.

 NO OUTPUT CONTROL FOR STRESS PERIOD   25   TIME STEP 1246

 -------------------------------------------------------------------------------
                             SWR1 OUTPUT PRINT TIMES
                        STRESS PERIOD   25   TIME STEP  1246
 --------------- --------------- --------------- --------------- ---------------
     0.23592E+06                                                                
 -------------------------------------------------------------------------------
 
 SOLVING FOR HEAD 
 INITIAL HNEW IS AN EXACT SOLUTION.

 NO OUTPUT CONTROL FOR STRESS PERIOD   25   TIME STEP 1247

 -------------------------------------------------------------------------------
                             SWR1 OUTPUT PRINT TIMES
                        STRESS PERIOD   25   TIME STEP  1247
 --------------- --------------- --------------- --------------- ---------------
     0.23604E+06                                                                
 -------------------------------------------------------------------------------
 
 SOLVING FOR HEAD 
 INITIAL HNEW IS AN EXACT SOLUTION.

 NO OUTPUT CONTROL FOR STRESS PERIOD   25   TIME STEP 1248

 -------------------------------------------------------------------------------
                             SWR1 OUTPUT PRINT TIMES
                        STRESS PERIOD   25   TIME STEP  1248
 --------------- --------------- --------------- --------------- ---------------
     0.23616E+06                                                                
 -------------------------------------------------------------------------------
 
 SOLVING FOR HEAD 
 INITIAL HNEW IS AN EXACT SOLUTION.

 NO OUTPUT CONTROL FOR STRESS PERIOD   25   TIME STEP 1249

 -------------------------------------------------------------------------------
                             SWR1 OUTPUT PRINT TIMES
                        STRESS PERIOD   25   TIME STEP  1249
 --------------- --------------- --------------- --------------- ---------------
     0.23628E+06                                                                
 -------------------------------------------------------------------------------
 
 SOLVING FOR HEAD 
 INITIAL HNEW IS AN EXACT SOLUTION.

 NO OUTPUT CONTROL FOR STRESS PERIOD   25   TIME STEP 1250

 -------------------------------------------------------------------------------
                             SWR1 OUTPUT PRINT TIMES
                        STRESS PERIOD   25   TIME STEP  1250
 --------------- --------------- --------------- --------------- ---------------
     0.23640E+06                                                                
 -------------------------------------------------------------------------------
 
 SOLVING FOR HEAD 
 INITIAL HNEW IS AN EXACT SOLUTION.

 NO OUTPUT CONTROL FOR STRESS PERIOD   25   TIME STEP 1251

 -------------------------------------------------------------------------------
                             SWR1 OUTPUT PRINT TIMES
                        STRESS PERIOD   25   TIME STEP  1251
 --------------- --------------- --------------- --------------- ---------------
     0.23652E+06                                                                
 -------------------------------------------------------------------------------
 
 SOLVING FOR HEAD 
 INITIAL HNEW IS AN EXACT SOLUTION.

 NO OUTPUT CONTROL FOR STRESS PERIOD   25   TIME STEP 1252

 -------------------------------------------------------------------------------
                             SWR1 OUTPUT PRINT TIMES
                        STRESS PERIOD   25   TIME STEP  1252
 --------------- --------------- --------------- --------------- ---------------
     0.23664E+06                                                                
 -------------------------------------------------------------------------------
 
 SOLVING FOR HEAD 
 INITIAL HNEW IS AN EXACT SOLUTION.

 NO OUTPUT CONTROL FOR STRESS PERIOD   25   TIME STEP 1253

 -------------------------------------------------------------------------------
                             SWR1 OUTPUT PRINT TIMES
                        STRESS PERIOD   25   TIME STEP  1253
 --------------- --------------- --------------- --------------- ---------------
     0.23676E+06                                                                
 -------------------------------------------------------------------------------
 
 SOLVING FOR HEAD 
 INITIAL HNEW IS AN EXACT SOLUTION.

 NO OUTPUT CONTROL FOR STRESS PERIOD   25   TIME STEP 1254

 -------------------------------------------------------------------------------
                             SWR1 OUTPUT PRINT TIMES
                        STRESS PERIOD   25   TIME STEP  1254
 --------------- --------------- --------------- --------------- ---------------
     0.23688E+06                                                                
 -------------------------------------------------------------------------------
 
 SOLVING FOR HEAD 
 INITIAL HNEW IS AN EXACT SOLUTION.

 NO OUTPUT CONTROL FOR STRESS PERIOD   25   TIME STEP 1255

 -------------------------------------------------------------------------------
                             SWR1 OUTPUT PRINT TIMES
                        STRESS PERIOD   25   TIME STEP  1255
 --------------- --------------- --------------- --------------- ---------------
     0.23700E+06                                                                
 -------------------------------------------------------------------------------
 
 SOLVING FOR HEAD 
 INITIAL HNEW IS AN EXACT SOLUTION.

 NO OUTPUT CONTROL FOR STRESS PERIOD   25   TIME STEP 1256

 -------------------------------------------------------------------------------
                             SWR1 OUTPUT PRINT TIMES
                        STRESS PERIOD   25   TIME STEP  1256
 --------------- --------------- --------------- --------------- ---------------
     0.23712E+06                                                                
 -------------------------------------------------------------------------------
 
 SOLVING FOR HEAD 
 INITIAL HNEW IS AN EXACT SOLUTION.

 NO OUTPUT CONTROL FOR STRESS PERIOD   25   TIME STEP 1257

 -------------------------------------------------------------------------------
                             SWR1 OUTPUT PRINT TIMES
                        STRESS PERIOD   25   TIME STEP  1257
 --------------- --------------- --------------- --------------- ---------------
     0.23724E+06                                                                
 -------------------------------------------------------------------------------
 
 SOLVING FOR HEAD 
 INITIAL HNEW IS AN EXACT SOLUTION.

 NO OUTPUT CONTROL FOR STRESS PERIOD   25   TIME STEP 1258

 -------------------------------------------------------------------------------
                             SWR1 OUTPUT PRINT TIMES
                        STRESS PERIOD   25   TIME STEP  1258
 --------------- --------------- --------------- --------------- ---------------
     0.23736E+06                                                                
 -------------------------------------------------------------------------------
 
 SOLVING FOR HEAD 
 INITIAL HNEW IS AN EXACT SOLUTION.

 NO OUTPUT CONTROL FOR STRESS PERIOD   25   TIME STEP 1259

 -------------------------------------------------------------------------------
                             SWR1 OUTPUT PRINT TIMES
                        STRESS PERIOD   25   TIME STEP  1259
 --------------- --------------- --------------- --------------- ---------------
     0.23748E+06                                                                
 -------------------------------------------------------------------------------
 
 SOLVING FOR HEAD 
 INITIAL HNEW IS AN EXACT SOLUTION.

 NO OUTPUT CONTROL FOR STRESS PERIOD   25   TIME STEP 1260

 -------------------------------------------------------------------------------
                             SWR1 OUTPUT PRINT TIMES
                        STRESS PERIOD   25   TIME STEP  1260
 --------------- --------------- --------------- --------------- ---------------
     0.23760E+06                                                                
 -------------------------------------------------------------------------------
 
 SOLVING FOR HEAD 
 INITIAL HNEW IS AN EXACT SOLUTION.

 NO OUTPUT CONTROL FOR STRESS PERIOD   25   TIME STEP 1261

 -------------------------------------------------------------------------------
                             SWR1 OUTPUT PRINT TIMES
                        STRESS PERIOD   25   TIME STEP  1261
 --------------- --------------- --------------- --------------- ---------------
     0.23772E+06                                                                
 -------------------------------------------------------------------------------
 
 SOLVING FOR HEAD 
 INITIAL HNEW IS AN EXACT SOLUTION.

 NO OUTPUT CONTROL FOR STRESS PERIOD   25   TIME STEP 1262

 -------------------------------------------------------------------------------
                             SWR1 OUTPUT PRINT TIMES
                        STRESS PERIOD   25   TIME STEP  1262
 --------------- --------------- --------------- --------------- ---------------
     0.23784E+06                                                                
 -------------------------------------------------------------------------------
 
 SOLVING FOR HEAD 
 INITIAL HNEW IS AN EXACT SOLUTION.

 NO OUTPUT CONTROL FOR STRESS PERIOD   25   TIME STEP 1263

 -------------------------------------------------------------------------------
                             SWR1 OUTPUT PRINT TIMES
                        STRESS PERIOD   25   TIME STEP  1263
 --------------- --------------- --------------- --------------- ---------------
     0.23796E+06                                                                
 -------------------------------------------------------------------------------
 
 SOLVING FOR HEAD 
 INITIAL HNEW IS AN EXACT SOLUTION.

 NO OUTPUT CONTROL FOR STRESS PERIOD   25   TIME STEP 1264

 -------------------------------------------------------------------------------
                             SWR1 OUTPUT PRINT TIMES
                        STRESS PERIOD   25   TIME STEP  1264
 --------------- --------------- --------------- --------------- ---------------
     0.23808E+06                                                                
 -------------------------------------------------------------------------------
 
 SOLVING FOR HEAD 
 INITIAL HNEW IS AN EXACT SOLUTION.

 NO OUTPUT CONTROL FOR STRESS PERIOD   25   TIME STEP 1265

 -------------------------------------------------------------------------------
                             SWR1 OUTPUT PRINT TIMES
                        STRESS PERIOD   25   TIME STEP  1265
 --------------- --------------- --------------- --------------- ---------------
     0.23820E+06                                                                
 -------------------------------------------------------------------------------
 
 SOLVING FOR HEAD 
 INITIAL HNEW IS AN EXACT SOLUTION.

 NO OUTPUT CONTROL FOR STRESS PERIOD   25   TIME STEP 1266

 -------------------------------------------------------------------------------
                             SWR1 OUTPUT PRINT TIMES
                        STRESS PERIOD   25   TIME STEP  1266
 --------------- --------------- --------------- --------------- ---------------
     0.23832E+06                                                                
 -------------------------------------------------------------------------------
 
 SOLVING FOR HEAD 
 INITIAL HNEW IS AN EXACT SOLUTION.

 NO OUTPUT CONTROL FOR STRESS PERIOD   25   TIME STEP 1267

 -------------------------------------------------------------------------------
                             SWR1 OUTPUT PRINT TIMES
                        STRESS PERIOD   25   TIME STEP  1267
 --------------- --------------- --------------- --------------- ---------------
     0.23844E+06                                                                
 -------------------------------------------------------------------------------
 
 SOLVING FOR HEAD 
 INITIAL HNEW IS AN EXACT SOLUTION.

 NO OUTPUT CONTROL FOR STRESS PERIOD   25   TIME STEP 1268

 -------------------------------------------------------------------------------
                             SWR1 OUTPUT PRINT TIMES
                        STRESS PERIOD   25   TIME STEP  1268
 --------------- --------------- --------------- --------------- ---------------
     0.23856E+06                                                                
 -------------------------------------------------------------------------------
 
 SOLVING FOR HEAD 
 INITIAL HNEW IS AN EXACT SOLUTION.

 NO OUTPUT CONTROL FOR STRESS PERIOD   25   TIME STEP 1269

 -------------------------------------------------------------------------------
                             SWR1 OUTPUT PRINT TIMES
                        STRESS PERIOD   25   TIME STEP  1269
 --------------- --------------- --------------- --------------- ---------------
     0.23868E+06                                                                
 -------------------------------------------------------------------------------
 
 SOLVING FOR HEAD 
 INITIAL HNEW IS AN EXACT SOLUTION.

 NO OUTPUT CONTROL FOR STRESS PERIOD   25   TIME STEP 1270

 -------------------------------------------------------------------------------
                             SWR1 OUTPUT PRINT TIMES
                        STRESS PERIOD   25   TIME STEP  1270
 --------------- --------------- --------------- --------------- ---------------
     0.23880E+06                                                                
 -------------------------------------------------------------------------------
 
 SOLVING FOR HEAD 
 INITIAL HNEW IS AN EXACT SOLUTION.

 NO OUTPUT CONTROL FOR STRESS PERIOD   25   TIME STEP 1271

 -------------------------------------------------------------------------------
                             SWR1 OUTPUT PRINT TIMES
                        STRESS PERIOD   25   TIME STEP  1271
 --------------- --------------- --------------- --------------- ---------------
     0.23892E+06                                                                
 -------------------------------------------------------------------------------
 
 SOLVING FOR HEAD 
 INITIAL HNEW IS AN EXACT SOLUTION.

 NO OUTPUT CONTROL FOR STRESS PERIOD   25   TIME STEP 1272

 -------------------------------------------------------------------------------
                             SWR1 OUTPUT PRINT TIMES
                        STRESS PERIOD   25   TIME STEP  1272
 --------------- --------------- --------------- --------------- ---------------
     0.23904E+06                                                                
 -------------------------------------------------------------------------------
 
 SOLVING FOR HEAD 
 INITIAL HNEW IS AN EXACT SOLUTION.

 NO OUTPUT CONTROL FOR STRESS PERIOD   25   TIME STEP 1273

 -------------------------------------------------------------------------------
                             SWR1 OUTPUT PRINT TIMES
                        STRESS PERIOD   25   TIME STEP  1273
 --------------- --------------- --------------- --------------- ---------------
     0.23916E+06                                                                
 -------------------------------------------------------------------------------
 
 SOLVING FOR HEAD 
 INITIAL HNEW IS AN EXACT SOLUTION.

 NO OUTPUT CONTROL FOR STRESS PERIOD   25   TIME STEP 1274

 -------------------------------------------------------------------------------
                             SWR1 OUTPUT PRINT TIMES
                        STRESS PERIOD   25   TIME STEP  1274
 --------------- --------------- --------------- --------------- ---------------
     0.23928E+06                                                                
 -------------------------------------------------------------------------------
 
 SOLVING FOR HEAD 
 INITIAL HNEW IS AN EXACT SOLUTION.

 NO OUTPUT CONTROL FOR STRESS PERIOD   25   TIME STEP 1275

 -------------------------------------------------------------------------------
                             SWR1 OUTPUT PRINT TIMES
                        STRESS PERIOD   25   TIME STEP  1275
 --------------- --------------- --------------- --------------- ---------------
     0.23940E+06                                                                
 -------------------------------------------------------------------------------
 
 SOLVING FOR HEAD 
 INITIAL HNEW IS AN EXACT SOLUTION.

 NO OUTPUT CONTROL FOR STRESS PERIOD   25   TIME STEP 1276

 -------------------------------------------------------------------------------
                             SWR1 OUTPUT PRINT TIMES
                        STRESS PERIOD   25   TIME STEP  1276
 --------------- --------------- --------------- --------------- ---------------
     0.23952E+06                                                                
 -------------------------------------------------------------------------------
 
 SOLVING FOR HEAD 
 INITIAL HNEW IS AN EXACT SOLUTION.

 NO OUTPUT CONTROL FOR STRESS PERIOD   25   TIME STEP 1277

 -------------------------------------------------------------------------------
                             SWR1 OUTPUT PRINT TIMES
                        STRESS PERIOD   25   TIME STEP  1277
 --------------- --------------- --------------- --------------- ---------------
     0.23964E+06                                                                
 -------------------------------------------------------------------------------
 
 SOLVING FOR HEAD 
 INITIAL HNEW IS AN EXACT SOLUTION.

 NO OUTPUT CONTROL FOR STRESS PERIOD   25   TIME STEP 1278

 -------------------------------------------------------------------------------
                             SWR1 OUTPUT PRINT TIMES
                        STRESS PERIOD   25   TIME STEP  1278
 --------------- --------------- --------------- --------------- ---------------
     0.23976E+06                                                                
 -------------------------------------------------------------------------------
 
 SOLVING FOR HEAD 
 INITIAL HNEW IS AN EXACT SOLUTION.

 NO OUTPUT CONTROL FOR STRESS PERIOD   25   TIME STEP 1279

 -------------------------------------------------------------------------------
                             SWR1 OUTPUT PRINT TIMES
                        STRESS PERIOD   25   TIME STEP  1279
 --------------- --------------- --------------- --------------- ---------------
     0.23988E+06                                                                
 -------------------------------------------------------------------------------
 
 SOLVING FOR HEAD 
 INITIAL HNEW IS AN EXACT SOLUTION.

 NO OUTPUT CONTROL FOR STRESS PERIOD   25   TIME STEP 1280

 -------------------------------------------------------------------------------
                             SWR1 OUTPUT PRINT TIMES
                        STRESS PERIOD   25   TIME STEP  1280
 --------------- --------------- --------------- --------------- ---------------
     0.24000E+06                                                                
 -------------------------------------------------------------------------------
 
 SOLVING FOR HEAD 
 INITIAL HNEW IS AN EXACT SOLUTION.

 NO OUTPUT CONTROL FOR STRESS PERIOD   25   TIME STEP 1281

 -------------------------------------------------------------------------------
                             SWR1 OUTPUT PRINT TIMES
                        STRESS PERIOD   25   TIME STEP  1281
 --------------- --------------- --------------- --------------- ---------------
     0.24012E+06                                                                
 -------------------------------------------------------------------------------
 
 SOLVING FOR HEAD 
 INITIAL HNEW IS AN EXACT SOLUTION.

 NO OUTPUT CONTROL FOR STRESS PERIOD   25   TIME STEP 1282

 -------------------------------------------------------------------------------
                             SWR1 OUTPUT PRINT TIMES
                        STRESS PERIOD   25   TIME STEP  1282
 --------------- --------------- --------------- --------------- ---------------
     0.24024E+06                                                                
 -------------------------------------------------------------------------------
 
 SOLVING FOR HEAD 
 INITIAL HNEW IS AN EXACT SOLUTION.

 NO OUTPUT CONTROL FOR STRESS PERIOD   25   TIME STEP 1283

 -------------------------------------------------------------------------------
                             SWR1 OUTPUT PRINT TIMES
                        STRESS PERIOD   25   TIME STEP  1283
 --------------- --------------- --------------- --------------- ---------------
     0.24036E+06                                                                
 -------------------------------------------------------------------------------
 
 SOLVING FOR HEAD 
 INITIAL HNEW IS AN EXACT SOLUTION.

 NO OUTPUT CONTROL FOR STRESS PERIOD   25   TIME STEP 1284

 -------------------------------------------------------------------------------
                             SWR1 OUTPUT PRINT TIMES
                        STRESS PERIOD   25   TIME STEP  1284
 --------------- --------------- --------------- --------------- ---------------
     0.24048E+06                                                                
 -------------------------------------------------------------------------------
 
 SOLVING FOR HEAD 
 INITIAL HNEW IS AN EXACT SOLUTION.

 NO OUTPUT CONTROL FOR STRESS PERIOD   25   TIME STEP 1285

 -------------------------------------------------------------------------------
                             SWR1 OUTPUT PRINT TIMES
                        STRESS PERIOD   25   TIME STEP  1285
 --------------- --------------- --------------- --------------- ---------------
     0.24060E+06                                                                
 -------------------------------------------------------------------------------
 
 SOLVING FOR HEAD 
 INITIAL HNEW IS AN EXACT SOLUTION.

 NO OUTPUT CONTROL FOR STRESS PERIOD   25   TIME STEP 1286

 -------------------------------------------------------------------------------
                             SWR1 OUTPUT PRINT TIMES
                        STRESS PERIOD   25   TIME STEP  1286
 --------------- --------------- --------------- --------------- ---------------
     0.24072E+06                                                                
 -------------------------------------------------------------------------------
 
 SOLVING FOR HEAD 
 INITIAL HNEW IS AN EXACT SOLUTION.

 NO OUTPUT CONTROL FOR STRESS PERIOD   25   TIME STEP 1287

 -------------------------------------------------------------------------------
                             SWR1 OUTPUT PRINT TIMES
                        STRESS PERIOD   25   TIME STEP  1287
 --------------- --------------- --------------- --------------- ---------------
     0.24084E+06                                                                
 -------------------------------------------------------------------------------
 
 SOLVING FOR HEAD 
 INITIAL HNEW IS AN EXACT SOLUTION.

 NO OUTPUT CONTROL FOR STRESS PERIOD   25   TIME STEP 1288

 -------------------------------------------------------------------------------
                             SWR1 OUTPUT PRINT TIMES
                        STRESS PERIOD   25   TIME STEP  1288
 --------------- --------------- --------------- --------------- ---------------
     0.24096E+06                                                                
 -------------------------------------------------------------------------------
 
 SOLVING FOR HEAD 
 INITIAL HNEW IS AN EXACT SOLUTION.

 NO OUTPUT CONTROL FOR STRESS PERIOD   25   TIME STEP 1289

 -------------------------------------------------------------------------------
                             SWR1 OUTPUT PRINT TIMES
                        STRESS PERIOD   25   TIME STEP  1289
 --------------- --------------- --------------- --------------- ---------------
     0.24108E+06                                                                
 -------------------------------------------------------------------------------
 
 SOLVING FOR HEAD 
 INITIAL HNEW IS AN EXACT SOLUTION.

 NO OUTPUT CONTROL FOR STRESS PERIOD   25   TIME STEP 1290

 -------------------------------------------------------------------------------
                             SWR1 OUTPUT PRINT TIMES
                        STRESS PERIOD   25   TIME STEP  1290
 --------------- --------------- --------------- --------------- ---------------
     0.24120E+06                                                                
 -------------------------------------------------------------------------------
 
 SOLVING FOR HEAD 
 INITIAL HNEW IS AN EXACT SOLUTION.

 NO OUTPUT CONTROL FOR STRESS PERIOD   25   TIME STEP 1291

 -------------------------------------------------------------------------------
                             SWR1 OUTPUT PRINT TIMES
                        STRESS PERIOD   25   TIME STEP  1291
 --------------- --------------- --------------- --------------- ---------------
     0.24132E+06                                                                
 -------------------------------------------------------------------------------
 
 SOLVING FOR HEAD 
 INITIAL HNEW IS AN EXACT SOLUTION.

 NO OUTPUT CONTROL FOR STRESS PERIOD   25   TIME STEP 1292

 -------------------------------------------------------------------------------
                             SWR1 OUTPUT PRINT TIMES
                        STRESS PERIOD   25   TIME STEP  1292
 --------------- --------------- --------------- --------------- ---------------
     0.24144E+06                                                                
 -------------------------------------------------------------------------------
 
 SOLVING FOR HEAD 
 INITIAL HNEW IS AN EXACT SOLUTION.

 NO OUTPUT CONTROL FOR STRESS PERIOD   25   TIME STEP 1293

 -------------------------------------------------------------------------------
                             SWR1 OUTPUT PRINT TIMES
                        STRESS PERIOD   25   TIME STEP  1293
 --------------- --------------- --------------- --------------- ---------------
     0.24156E+06                                                                
 -------------------------------------------------------------------------------
 
 SOLVING FOR HEAD 
 INITIAL HNEW IS AN EXACT SOLUTION.

 NO OUTPUT CONTROL FOR STRESS PERIOD   25   TIME STEP 1294

 -------------------------------------------------------------------------------
                             SWR1 OUTPUT PRINT TIMES
                        STRESS PERIOD   25   TIME STEP  1294
 --------------- --------------- --------------- --------------- ---------------
     0.24168E+06                                                                
 -------------------------------------------------------------------------------
 
 SOLVING FOR HEAD 
 INITIAL HNEW IS AN EXACT SOLUTION.

 NO OUTPUT CONTROL FOR STRESS PERIOD   25   TIME STEP 1295

 -------------------------------------------------------------------------------
                             SWR1 OUTPUT PRINT TIMES
                        STRESS PERIOD   25   TIME STEP  1295
 --------------- --------------- --------------- --------------- ---------------
     0.24180E+06                                                                
 -------------------------------------------------------------------------------
 
 SOLVING FOR HEAD 
 INITIAL HNEW IS AN EXACT SOLUTION.

 NO OUTPUT CONTROL FOR STRESS PERIOD   25   TIME STEP 1296

 -------------------------------------------------------------------------------
                             SWR1 OUTPUT PRINT TIMES
                        STRESS PERIOD   25   TIME STEP  1296
 --------------- --------------- --------------- --------------- ---------------
     0.24192E+06                                                                
 -------------------------------------------------------------------------------
 
 SOLVING FOR HEAD 
 INITIAL HNEW IS AN EXACT SOLUTION.

 NO OUTPUT CONTROL FOR STRESS PERIOD   25   TIME STEP 1297

 -------------------------------------------------------------------------------
                             SWR1 OUTPUT PRINT TIMES
                        STRESS PERIOD   25   TIME STEP  1297
 --------------- --------------- --------------- --------------- ---------------
     0.24204E+06                                                                
 -------------------------------------------------------------------------------
 
 SOLVING FOR HEAD 
 INITIAL HNEW IS AN EXACT SOLUTION.

 NO OUTPUT CONTROL FOR STRESS PERIOD   25   TIME STEP 1298

 -------------------------------------------------------------------------------
                             SWR1 OUTPUT PRINT TIMES
                        STRESS PERIOD   25   TIME STEP  1298
 --------------- --------------- --------------- --------------- ---------------
     0.24216E+06                                                                
 -------------------------------------------------------------------------------
 
 SOLVING FOR HEAD 
 INITIAL HNEW IS AN EXACT SOLUTION.

 NO OUTPUT CONTROL FOR STRESS PERIOD   25   TIME STEP 1299

 -------------------------------------------------------------------------------
                             SWR1 OUTPUT PRINT TIMES
                        STRESS PERIOD   25   TIME STEP  1299
 --------------- --------------- --------------- --------------- ---------------
     0.24228E+06                                                                
 -------------------------------------------------------------------------------
 
 SOLVING FOR HEAD 
 INITIAL HNEW IS AN EXACT SOLUTION.

 NO OUTPUT CONTROL FOR STRESS PERIOD   25   TIME STEP 1300

 -------------------------------------------------------------------------------
                             SWR1 OUTPUT PRINT TIMES
                        STRESS PERIOD   25   TIME STEP  1300
 --------------- --------------- --------------- --------------- ---------------
     0.24240E+06                                                                
 -------------------------------------------------------------------------------
 
 SOLVING FOR HEAD 
 INITIAL HNEW IS AN EXACT SOLUTION.

 NO OUTPUT CONTROL FOR STRESS PERIOD   25   TIME STEP 1301

 -------------------------------------------------------------------------------
                             SWR1 OUTPUT PRINT TIMES
                        STRESS PERIOD   25   TIME STEP  1301
 --------------- --------------- --------------- --------------- ---------------
     0.24252E+06                                                                
 -------------------------------------------------------------------------------
 
 SOLVING FOR HEAD 
 INITIAL HNEW IS AN EXACT SOLUTION.

 NO OUTPUT CONTROL FOR STRESS PERIOD   25   TIME STEP 1302

 -------------------------------------------------------------------------------
                             SWR1 OUTPUT PRINT TIMES
                        STRESS PERIOD   25   TIME STEP  1302
 --------------- --------------- --------------- --------------- ---------------
     0.24264E+06                                                                
 -------------------------------------------------------------------------------
 
 SOLVING FOR HEAD 
 INITIAL HNEW IS AN EXACT SOLUTION.

 NO OUTPUT CONTROL FOR STRESS PERIOD   25   TIME STEP 1303

 -------------------------------------------------------------------------------
                             SWR1 OUTPUT PRINT TIMES
                        STRESS PERIOD   25   TIME STEP  1303
 --------------- --------------- --------------- --------------- ---------------
     0.24276E+06                                                                
 -------------------------------------------------------------------------------
 
 SOLVING FOR HEAD 
 INITIAL HNEW IS AN EXACT SOLUTION.

 NO OUTPUT CONTROL FOR STRESS PERIOD   25   TIME STEP 1304

 -------------------------------------------------------------------------------
                             SWR1 OUTPUT PRINT TIMES
                        STRESS PERIOD   25   TIME STEP  1304
 --------------- --------------- --------------- --------------- ---------------
     0.24288E+06                                                                
 -------------------------------------------------------------------------------
 
 SOLVING FOR HEAD 
 INITIAL HNEW IS AN EXACT SOLUTION.

 NO OUTPUT CONTROL FOR STRESS PERIOD   25   TIME STEP 1305

 -------------------------------------------------------------------------------
                             SWR1 OUTPUT PRINT TIMES
                        STRESS PERIOD   25   TIME STEP  1305
 --------------- --------------- --------------- --------------- ---------------
     0.24300E+06                                                                
 -------------------------------------------------------------------------------
 
 SOLVING FOR HEAD 
 INITIAL HNEW IS AN EXACT SOLUTION.

 NO OUTPUT CONTROL FOR STRESS PERIOD   25   TIME STEP 1306

 -------------------------------------------------------------------------------
                             SWR1 OUTPUT PRINT TIMES
                        STRESS PERIOD   25   TIME STEP  1306
 --------------- --------------- --------------- --------------- ---------------
     0.24312E+06                                                                
 -------------------------------------------------------------------------------
 
 SOLVING FOR HEAD 
 INITIAL HNEW IS AN EXACT SOLUTION.

 NO OUTPUT CONTROL FOR STRESS PERIOD   25   TIME STEP 1307

 -------------------------------------------------------------------------------
                             SWR1 OUTPUT PRINT TIMES
                        STRESS PERIOD   25   TIME STEP  1307
 --------------- --------------- --------------- --------------- ---------------
     0.24324E+06                                                                
 -------------------------------------------------------------------------------
 
 SOLVING FOR HEAD 
 INITIAL HNEW IS AN EXACT SOLUTION.

 NO OUTPUT CONTROL FOR STRESS PERIOD   25   TIME STEP 1308

 -------------------------------------------------------------------------------
                             SWR1 OUTPUT PRINT TIMES
                        STRESS PERIOD   25   TIME STEP  1308
 --------------- --------------- --------------- --------------- ---------------
     0.24336E+06                                                                
 -------------------------------------------------------------------------------
 
 SOLVING FOR HEAD 
 INITIAL HNEW IS AN EXACT SOLUTION.

 NO OUTPUT CONTROL FOR STRESS PERIOD   25   TIME STEP 1309

 -------------------------------------------------------------------------------
                             SWR1 OUTPUT PRINT TIMES
                        STRESS PERIOD   25   TIME STEP  1309
 --------------- --------------- --------------- --------------- ---------------
     0.24348E+06                                                                
 -------------------------------------------------------------------------------
 
 SOLVING FOR HEAD 
 INITIAL HNEW IS AN EXACT SOLUTION.

 NO OUTPUT CONTROL FOR STRESS PERIOD   25   TIME STEP 1310

 -------------------------------------------------------------------------------
                             SWR1 OUTPUT PRINT TIMES
                        STRESS PERIOD   25   TIME STEP  1310
 --------------- --------------- --------------- --------------- ---------------
     0.24360E+06                                                                
 -------------------------------------------------------------------------------
 
 SOLVING FOR HEAD 
 INITIAL HNEW IS AN EXACT SOLUTION.

 NO OUTPUT CONTROL FOR STRESS PERIOD   25   TIME STEP 1311

 -------------------------------------------------------------------------------
                             SWR1 OUTPUT PRINT TIMES
                        STRESS PERIOD   25   TIME STEP  1311
 --------------- --------------- --------------- --------------- ---------------
     0.24372E+06                                                                
 -------------------------------------------------------------------------------
 
 SOLVING FOR HEAD 
 INITIAL HNEW IS AN EXACT SOLUTION.

 NO OUTPUT CONTROL FOR STRESS PERIOD   25   TIME STEP 1312

 -------------------------------------------------------------------------------
                             SWR1 OUTPUT PRINT TIMES
                        STRESS PERIOD   25   TIME STEP  1312
 --------------- --------------- --------------- --------------- ---------------
     0.24384E+06                                                                
 -------------------------------------------------------------------------------
 
 SOLVING FOR HEAD 
 INITIAL HNEW IS AN EXACT SOLUTION.

 NO OUTPUT CONTROL FOR STRESS PERIOD   25   TIME STEP 1313

 -------------------------------------------------------------------------------
                             SWR1 OUTPUT PRINT TIMES
                        STRESS PERIOD   25   TIME STEP  1313
 --------------- --------------- --------------- --------------- ---------------
     0.24396E+06                                                                
 -------------------------------------------------------------------------------
 
 SOLVING FOR HEAD 
 INITIAL HNEW IS AN EXACT SOLUTION.

 NO OUTPUT CONTROL FOR STRESS PERIOD   25   TIME STEP 1314

 -------------------------------------------------------------------------------
                             SWR1 OUTPUT PRINT TIMES
                        STRESS PERIOD   25   TIME STEP  1314
 --------------- --------------- --------------- --------------- ---------------
     0.24408E+06                                                                
 -------------------------------------------------------------------------------
 
 SOLVING FOR HEAD 
 INITIAL HNEW IS AN EXACT SOLUTION.

 NO OUTPUT CONTROL FOR STRESS PERIOD   25   TIME STEP 1315

 -------------------------------------------------------------------------------
                             SWR1 OUTPUT PRINT TIMES
                        STRESS PERIOD   25   TIME STEP  1315
 --------------- --------------- --------------- --------------- ---------------
     0.24420E+06                                                                
 -------------------------------------------------------------------------------
 
 SOLVING FOR HEAD 
 INITIAL HNEW IS AN EXACT SOLUTION.

 NO OUTPUT CONTROL FOR STRESS PERIOD   25   TIME STEP 1316

 -------------------------------------------------------------------------------
                             SWR1 OUTPUT PRINT TIMES
                        STRESS PERIOD   25   TIME STEP  1316
 --------------- --------------- --------------- --------------- ---------------
     0.24432E+06                                                                
 -------------------------------------------------------------------------------
 
 SOLVING FOR HEAD 
 INITIAL HNEW IS AN EXACT SOLUTION.

 NO OUTPUT CONTROL FOR STRESS PERIOD   25   TIME STEP 1317

 -------------------------------------------------------------------------------
                             SWR1 OUTPUT PRINT TIMES
                        STRESS PERIOD   25   TIME STEP  1317
 --------------- --------------- --------------- --------------- ---------------
     0.24444E+06                                                                
 -------------------------------------------------------------------------------
 
 SOLVING FOR HEAD 
 INITIAL HNEW IS AN EXACT SOLUTION.

 NO OUTPUT CONTROL FOR STRESS PERIOD   25   TIME STEP 1318

 -------------------------------------------------------------------------------
                             SWR1 OUTPUT PRINT TIMES
                        STRESS PERIOD   25   TIME STEP  1318
 --------------- --------------- --------------- --------------- ---------------
     0.24456E+06                                                                
 -------------------------------------------------------------------------------
 
 SOLVING FOR HEAD 
 INITIAL HNEW IS AN EXACT SOLUTION.

 NO OUTPUT CONTROL FOR STRESS PERIOD   25   TIME STEP 1319

 -------------------------------------------------------------------------------
                             SWR1 OUTPUT PRINT TIMES
                        STRESS PERIOD   25   TIME STEP  1319
 --------------- --------------- --------------- --------------- ---------------
     0.24468E+06                                                                
 -------------------------------------------------------------------------------
 
 SOLVING FOR HEAD 
 INITIAL HNEW IS AN EXACT SOLUTION.

 NO OUTPUT CONTROL FOR STRESS PERIOD   25   TIME STEP 1320

 -------------------------------------------------------------------------------
                             SWR1 OUTPUT PRINT TIMES
                        STRESS PERIOD   25   TIME STEP  1320
 --------------- --------------- --------------- --------------- ---------------
     0.24480E+06                                                                
 -------------------------------------------------------------------------------
 
 SOLVING FOR HEAD 
 INITIAL HNEW IS AN EXACT SOLUTION.

 NO OUTPUT CONTROL FOR STRESS PERIOD   25   TIME STEP 1321

 -------------------------------------------------------------------------------
                             SWR1 OUTPUT PRINT TIMES
                        STRESS PERIOD   25   TIME STEP  1321
 --------------- --------------- --------------- --------------- ---------------
     0.24492E+06                                                                
 -------------------------------------------------------------------------------
 
 SOLVING FOR HEAD 
 INITIAL HNEW IS AN EXACT SOLUTION.

 NO OUTPUT CONTROL FOR STRESS PERIOD   25   TIME STEP 1322

 -------------------------------------------------------------------------------
                             SWR1 OUTPUT PRINT TIMES
                        STRESS PERIOD   25   TIME STEP  1322
 --------------- --------------- --------------- --------------- ---------------
     0.24504E+06                                                                
 -------------------------------------------------------------------------------
 
 SOLVING FOR HEAD 
 INITIAL HNEW IS AN EXACT SOLUTION.

 NO OUTPUT CONTROL FOR STRESS PERIOD   25   TIME STEP 1323

 -------------------------------------------------------------------------------
                             SWR1 OUTPUT PRINT TIMES
                        STRESS PERIOD   25   TIME STEP  1323
 --------------- --------------- --------------- --------------- ---------------
     0.24516E+06                                                                
 -------------------------------------------------------------------------------
 
 SOLVING FOR HEAD 
 INITIAL HNEW IS AN EXACT SOLUTION.

 NO OUTPUT CONTROL FOR STRESS PERIOD   25   TIME STEP 1324

 -------------------------------------------------------------------------------
                             SWR1 OUTPUT PRINT TIMES
                        STRESS PERIOD   25   TIME STEP  1324
 --------------- --------------- --------------- --------------- ---------------
     0.24528E+06                                                                
 -------------------------------------------------------------------------------
 
 SOLVING FOR HEAD 
 INITIAL HNEW IS AN EXACT SOLUTION.

 NO OUTPUT CONTROL FOR STRESS PERIOD   25   TIME STEP 1325

 -------------------------------------------------------------------------------
                             SWR1 OUTPUT PRINT TIMES
                        STRESS PERIOD   25   TIME STEP  1325
 --------------- --------------- --------------- --------------- ---------------
     0.24540E+06                                                                
 -------------------------------------------------------------------------------
 
 SOLVING FOR HEAD 
 INITIAL HNEW IS AN EXACT SOLUTION.

 NO OUTPUT CONTROL FOR STRESS PERIOD   25   TIME STEP 1326

 -------------------------------------------------------------------------------
                             SWR1 OUTPUT PRINT TIMES
                        STRESS PERIOD   25   TIME STEP  1326
 --------------- --------------- --------------- --------------- ---------------
     0.24552E+06                                                                
 -------------------------------------------------------------------------------
 
 SOLVING FOR HEAD 
 INITIAL HNEW IS AN EXACT SOLUTION.

 NO OUTPUT CONTROL FOR STRESS PERIOD   25   TIME STEP 1327

 -------------------------------------------------------------------------------
                             SWR1 OUTPUT PRINT TIMES
                        STRESS PERIOD   25   TIME STEP  1327
 --------------- --------------- --------------- --------------- ---------------
     0.24564E+06                                                                
 -------------------------------------------------------------------------------
 
 SOLVING FOR HEAD 
 INITIAL HNEW IS AN EXACT SOLUTION.

 NO OUTPUT CONTROL FOR STRESS PERIOD   25   TIME STEP 1328

 -------------------------------------------------------------------------------
                             SWR1 OUTPUT PRINT TIMES
                        STRESS PERIOD   25   TIME STEP  1328
 --------------- --------------- --------------- --------------- ---------------
     0.24576E+06                                                                
 -------------------------------------------------------------------------------
 
 SOLVING FOR HEAD 
 INITIAL HNEW IS AN EXACT SOLUTION.

 NO OUTPUT CONTROL FOR STRESS PERIOD   25   TIME STEP 1329

 -------------------------------------------------------------------------------
                             SWR1 OUTPUT PRINT TIMES
                        STRESS PERIOD   25   TIME STEP  1329
 --------------- --------------- --------------- --------------- ---------------
     0.24588E+06                                                                
 -------------------------------------------------------------------------------
 
 SOLVING FOR HEAD 
 INITIAL HNEW IS AN EXACT SOLUTION.

 NO OUTPUT CONTROL FOR STRESS PERIOD   25   TIME STEP 1330

 -------------------------------------------------------------------------------
                             SWR1 OUTPUT PRINT TIMES
                        STRESS PERIOD   25   TIME STEP  1330
 --------------- --------------- --------------- --------------- ---------------
     0.24600E+06                                                                
 -------------------------------------------------------------------------------
 
 SOLVING FOR HEAD 
 INITIAL HNEW IS AN EXACT SOLUTION.

 NO OUTPUT CONTROL FOR STRESS PERIOD   25   TIME STEP 1331

 -------------------------------------------------------------------------------
                             SWR1 OUTPUT PRINT TIMES
                        STRESS PERIOD   25   TIME STEP  1331
 --------------- --------------- --------------- --------------- ---------------
     0.24612E+06                                                                
 -------------------------------------------------------------------------------
 
 SOLVING FOR HEAD 
 INITIAL HNEW IS AN EXACT SOLUTION.

 NO OUTPUT CONTROL FOR STRESS PERIOD   25   TIME STEP 1332

 -------------------------------------------------------------------------------
                             SWR1 OUTPUT PRINT TIMES
                        STRESS PERIOD   25   TIME STEP  1332
 --------------- --------------- --------------- --------------- ---------------
     0.24624E+06                                                                
 -------------------------------------------------------------------------------
 
 SOLVING FOR HEAD 
 INITIAL HNEW IS AN EXACT SOLUTION.

 NO OUTPUT CONTROL FOR STRESS PERIOD   25   TIME STEP 1333

 -------------------------------------------------------------------------------
                             SWR1 OUTPUT PRINT TIMES
                        STRESS PERIOD   25   TIME STEP  1333
 --------------- --------------- --------------- --------------- ---------------
     0.24636E+06                                                                
 -------------------------------------------------------------------------------
 
 SOLVING FOR HEAD 
 INITIAL HNEW IS AN EXACT SOLUTION.

 NO OUTPUT CONTROL FOR STRESS PERIOD   25   TIME STEP 1334

 -------------------------------------------------------------------------------
                             SWR1 OUTPUT PRINT TIMES
                        STRESS PERIOD   25   TIME STEP  1334
 --------------- --------------- --------------- --------------- ---------------
     0.24648E+06                                                                
 -------------------------------------------------------------------------------
 
 SOLVING FOR HEAD 
 INITIAL HNEW IS AN EXACT SOLUTION.

 NO OUTPUT CONTROL FOR STRESS PERIOD   25   TIME STEP 1335

 -------------------------------------------------------------------------------
                             SWR1 OUTPUT PRINT TIMES
                        STRESS PERIOD   25   TIME STEP  1335
 --------------- --------------- --------------- --------------- ---------------
     0.24660E+06                                                                
 -------------------------------------------------------------------------------
 
 SOLVING FOR HEAD 
 INITIAL HNEW IS AN EXACT SOLUTION.

 NO OUTPUT CONTROL FOR STRESS PERIOD   25   TIME STEP 1336

 -------------------------------------------------------------------------------
                             SWR1 OUTPUT PRINT TIMES
                        STRESS PERIOD   25   TIME STEP  1336
 --------------- --------------- --------------- --------------- ---------------
     0.24672E+06                                                                
 -------------------------------------------------------------------------------
 
 SOLVING FOR HEAD 
 INITIAL HNEW IS AN EXACT SOLUTION.

 NO OUTPUT CONTROL FOR STRESS PERIOD   25   TIME STEP 1337

 -------------------------------------------------------------------------------
                             SWR1 OUTPUT PRINT TIMES
                        STRESS PERIOD   25   TIME STEP  1337
 --------------- --------------- --------------- --------------- ---------------
     0.24684E+06                                                                
 -------------------------------------------------------------------------------
 
 SOLVING FOR HEAD 
 INITIAL HNEW IS AN EXACT SOLUTION.

 NO OUTPUT CONTROL FOR STRESS PERIOD   25   TIME STEP 1338

 -------------------------------------------------------------------------------
                             SWR1 OUTPUT PRINT TIMES
                        STRESS PERIOD   25   TIME STEP  1338
 --------------- --------------- --------------- --------------- ---------------
     0.24696E+06                                                                
 -------------------------------------------------------------------------------
 
 SOLVING FOR HEAD 
 INITIAL HNEW IS AN EXACT SOLUTION.

 NO OUTPUT CONTROL FOR STRESS PERIOD   25   TIME STEP 1339

 -------------------------------------------------------------------------------
                             SWR1 OUTPUT PRINT TIMES
                        STRESS PERIOD   25   TIME STEP  1339
 --------------- --------------- --------------- --------------- ---------------
     0.24708E+06                                                                
 -------------------------------------------------------------------------------
 
 SOLVING FOR HEAD 
 INITIAL HNEW IS AN EXACT SOLUTION.

 NO OUTPUT CONTROL FOR STRESS PERIOD   25   TIME STEP 1340

 -------------------------------------------------------------------------------
                             SWR1 OUTPUT PRINT TIMES
                        STRESS PERIOD   25   TIME STEP  1340
 --------------- --------------- --------------- --------------- ---------------
     0.24720E+06                                                                
 -------------------------------------------------------------------------------
 
 SOLVING FOR HEAD 
 INITIAL HNEW IS AN EXACT SOLUTION.

 NO OUTPUT CONTROL FOR STRESS PERIOD   25   TIME STEP 1341

 -------------------------------------------------------------------------------
                             SWR1 OUTPUT PRINT TIMES
                        STRESS PERIOD   25   TIME STEP  1341
 --------------- --------------- --------------- --------------- ---------------
     0.24732E+06                                                                
 -------------------------------------------------------------------------------
 
 SOLVING FOR HEAD 
 INITIAL HNEW IS AN EXACT SOLUTION.

 NO OUTPUT CONTROL FOR STRESS PERIOD   25   TIME STEP 1342

 -------------------------------------------------------------------------------
                             SWR1 OUTPUT PRINT TIMES
                        STRESS PERIOD   25   TIME STEP  1342
 --------------- --------------- --------------- --------------- ---------------
     0.24744E+06                                                                
 -------------------------------------------------------------------------------
 
 SOLVING FOR HEAD 
 INITIAL HNEW IS AN EXACT SOLUTION.

 NO OUTPUT CONTROL FOR STRESS PERIOD   25   TIME STEP 1343

 -------------------------------------------------------------------------------
                             SWR1 OUTPUT PRINT TIMES
                        STRESS PERIOD   25   TIME STEP  1343
 --------------- --------------- --------------- --------------- ---------------
     0.24756E+06                                                                
 -------------------------------------------------------------------------------
 
 SOLVING FOR HEAD 
 INITIAL HNEW IS AN EXACT SOLUTION.

 NO OUTPUT CONTROL FOR STRESS PERIOD   25   TIME STEP 1344

 -------------------------------------------------------------------------------
                             SWR1 OUTPUT PRINT TIMES
                        STRESS PERIOD   25   TIME STEP  1344
 --------------- --------------- --------------- --------------- ---------------
     0.24768E+06                                                                
 -------------------------------------------------------------------------------
 
 SOLVING FOR HEAD 
 INITIAL HNEW IS AN EXACT SOLUTION.

 NO OUTPUT CONTROL FOR STRESS PERIOD   25   TIME STEP 1345

 -------------------------------------------------------------------------------
                             SWR1 OUTPUT PRINT TIMES
                        STRESS PERIOD   25   TIME STEP  1345
 --------------- --------------- --------------- --------------- ---------------
     0.24780E+06                                                                
 -------------------------------------------------------------------------------
 
 SOLVING FOR HEAD 
 INITIAL HNEW IS AN EXACT SOLUTION.

 NO OUTPUT CONTROL FOR STRESS PERIOD   25   TIME STEP 1346

 -------------------------------------------------------------------------------
                             SWR1 OUTPUT PRINT TIMES
                        STRESS PERIOD   25   TIME STEP  1346
 --------------- --------------- --------------- --------------- ---------------
     0.24792E+06                                                                
 -------------------------------------------------------------------------------
 
 SOLVING FOR HEAD 
 INITIAL HNEW IS AN EXACT SOLUTION.

 NO OUTPUT CONTROL FOR STRESS PERIOD   25   TIME STEP 1347

 -------------------------------------------------------------------------------
                             SWR1 OUTPUT PRINT TIMES
                        STRESS PERIOD   25   TIME STEP  1347
 --------------- --------------- --------------- --------------- ---------------
     0.24804E+06                                                                
 -------------------------------------------------------------------------------
 
 SOLVING FOR HEAD 
 INITIAL HNEW IS AN EXACT SOLUTION.

 NO OUTPUT CONTROL FOR STRESS PERIOD   25   TIME STEP 1348

 -------------------------------------------------------------------------------
                             SWR1 OUTPUT PRINT TIMES
                        STRESS PERIOD   25   TIME STEP  1348
 --------------- --------------- --------------- --------------- ---------------
     0.24816E+06                                                                
 -------------------------------------------------------------------------------
 
 SOLVING FOR HEAD 
 INITIAL HNEW IS AN EXACT SOLUTION.

 NO OUTPUT CONTROL FOR STRESS PERIOD   25   TIME STEP 1349

 -------------------------------------------------------------------------------
                             SWR1 OUTPUT PRINT TIMES
                        STRESS PERIOD   25   TIME STEP  1349
 --------------- --------------- --------------- --------------- ---------------
     0.24828E+06                                                                
 -------------------------------------------------------------------------------
 
 SOLVING FOR HEAD 
 INITIAL HNEW IS AN EXACT SOLUTION.

 NO OUTPUT CONTROL FOR STRESS PERIOD   25   TIME STEP 1350

 -------------------------------------------------------------------------------
                             SWR1 OUTPUT PRINT TIMES
                        STRESS PERIOD   25   TIME STEP  1350
 --------------- --------------- --------------- --------------- ---------------
     0.24840E+06                                                                
 -------------------------------------------------------------------------------
 
 SOLVING FOR HEAD 
 INITIAL HNEW IS AN EXACT SOLUTION.

 NO OUTPUT CONTROL FOR STRESS PERIOD   25   TIME STEP 1351

 -------------------------------------------------------------------------------
                             SWR1 OUTPUT PRINT TIMES
                        STRESS PERIOD   25   TIME STEP  1351
 --------------- --------------- --------------- --------------- ---------------
     0.24852E+06                                                                
 -------------------------------------------------------------------------------
 
 SOLVING FOR HEAD 
 INITIAL HNEW IS AN EXACT SOLUTION.

 NO OUTPUT CONTROL FOR STRESS PERIOD   25   TIME STEP 1352

 -------------------------------------------------------------------------------
                             SWR1 OUTPUT PRINT TIMES
                        STRESS PERIOD   25   TIME STEP  1352
 --------------- --------------- --------------- --------------- ---------------
     0.24864E+06                                                                
 -------------------------------------------------------------------------------
 
 SOLVING FOR HEAD 
 INITIAL HNEW IS AN EXACT SOLUTION.

 NO OUTPUT CONTROL FOR STRESS PERIOD   25   TIME STEP 1353

 -------------------------------------------------------------------------------
                             SWR1 OUTPUT PRINT TIMES
                        STRESS PERIOD   25   TIME STEP  1353
 --------------- --------------- --------------- --------------- ---------------
     0.24876E+06                                                                
 -------------------------------------------------------------------------------
 
 SOLVING FOR HEAD 
 INITIAL HNEW IS AN EXACT SOLUTION.

 NO OUTPUT CONTROL FOR STRESS PERIOD   25   TIME STEP 1354

 -------------------------------------------------------------------------------
                             SWR1 OUTPUT PRINT TIMES
                        STRESS PERIOD   25   TIME STEP  1354
 --------------- --------------- --------------- --------------- ---------------
     0.24888E+06                                                                
 -------------------------------------------------------------------------------
 
 SOLVING FOR HEAD 
 INITIAL HNEW IS AN EXACT SOLUTION.

 NO OUTPUT CONTROL FOR STRESS PERIOD   25   TIME STEP 1355

 -------------------------------------------------------------------------------
                             SWR1 OUTPUT PRINT TIMES
                        STRESS PERIOD   25   TIME STEP  1355
 --------------- --------------- --------------- --------------- ---------------
     0.24900E+06                                                                
 -------------------------------------------------------------------------------
 
 SOLVING FOR HEAD 
 INITIAL HNEW IS AN EXACT SOLUTION.

 NO OUTPUT CONTROL FOR STRESS PERIOD   25   TIME STEP 1356

 -------------------------------------------------------------------------------
                             SWR1 OUTPUT PRINT TIMES
                        STRESS PERIOD   25   TIME STEP  1356
 --------------- --------------- --------------- --------------- ---------------
     0.24912E+06                                                                
 -------------------------------------------------------------------------------
 
 SOLVING FOR HEAD 
 INITIAL HNEW IS AN EXACT SOLUTION.

 NO OUTPUT CONTROL FOR STRESS PERIOD   25   TIME STEP 1357

 -------------------------------------------------------------------------------
                             SWR1 OUTPUT PRINT TIMES
                        STRESS PERIOD   25   TIME STEP  1357
 --------------- --------------- --------------- --------------- ---------------
     0.24924E+06                                                                
 -------------------------------------------------------------------------------
 
 SOLVING FOR HEAD 
 INITIAL HNEW IS AN EXACT SOLUTION.

 NO OUTPUT CONTROL FOR STRESS PERIOD   25   TIME STEP 1358

 -------------------------------------------------------------------------------
                             SWR1 OUTPUT PRINT TIMES
                        STRESS PERIOD   25   TIME STEP  1358
 --------------- --------------- --------------- --------------- ---------------
     0.24936E+06                                                                
 -------------------------------------------------------------------------------
 
 SOLVING FOR HEAD 
 INITIAL HNEW IS AN EXACT SOLUTION.

 NO OUTPUT CONTROL FOR STRESS PERIOD   25   TIME STEP 1359

 -------------------------------------------------------------------------------
                             SWR1 OUTPUT PRINT TIMES
                        STRESS PERIOD   25   TIME STEP  1359
 --------------- --------------- --------------- --------------- ---------------
     0.24948E+06                                                                
 -------------------------------------------------------------------------------
 
 SOLVING FOR HEAD 
 INITIAL HNEW IS AN EXACT SOLUTION.

 NO OUTPUT CONTROL FOR STRESS PERIOD   25   TIME STEP 1360

 -------------------------------------------------------------------------------
                             SWR1 OUTPUT PRINT TIMES
                        STRESS PERIOD   25   TIME STEP  1360
 --------------- --------------- --------------- --------------- ---------------
     0.24960E+06                                                                
 -------------------------------------------------------------------------------
 
 SOLVING FOR HEAD 
 INITIAL HNEW IS AN EXACT SOLUTION.

 NO OUTPUT CONTROL FOR STRESS PERIOD   25   TIME STEP 1361

 -------------------------------------------------------------------------------
                             SWR1 OUTPUT PRINT TIMES
                        STRESS PERIOD   25   TIME STEP  1361
 --------------- --------------- --------------- --------------- ---------------
     0.24972E+06                                                                
 -------------------------------------------------------------------------------
 
 SOLVING FOR HEAD 
 INITIAL HNEW IS AN EXACT SOLUTION.

 NO OUTPUT CONTROL FOR STRESS PERIOD   25   TIME STEP 1362

 -------------------------------------------------------------------------------
                             SWR1 OUTPUT PRINT TIMES
                        STRESS PERIOD   25   TIME STEP  1362
 --------------- --------------- --------------- --------------- ---------------
     0.24984E+06                                                                
 -------------------------------------------------------------------------------
 
 SOLVING FOR HEAD 
 INITIAL HNEW IS AN EXACT SOLUTION.

 NO OUTPUT CONTROL FOR STRESS PERIOD   25   TIME STEP 1363

 -------------------------------------------------------------------------------
                             SWR1 OUTPUT PRINT TIMES
                        STRESS PERIOD   25   TIME STEP  1363
 --------------- --------------- --------------- --------------- ---------------
     0.24996E+06                                                                
 -------------------------------------------------------------------------------
 
 SOLVING FOR HEAD 
 INITIAL HNEW IS AN EXACT SOLUTION.

 NO OUTPUT CONTROL FOR STRESS PERIOD   25   TIME STEP 1364

 -------------------------------------------------------------------------------
                             SWR1 OUTPUT PRINT TIMES
                        STRESS PERIOD   25   TIME STEP  1364
 --------------- --------------- --------------- --------------- ---------------
     0.25008E+06                                                                
 -------------------------------------------------------------------------------
 
 SOLVING FOR HEAD 
 INITIAL HNEW IS AN EXACT SOLUTION.

 NO OUTPUT CONTROL FOR STRESS PERIOD   25   TIME STEP 1365

 -------------------------------------------------------------------------------
                             SWR1 OUTPUT PRINT TIMES
                        STRESS PERIOD   25   TIME STEP  1365
 --------------- --------------- --------------- --------------- ---------------
     0.25020E+06                                                                
 -------------------------------------------------------------------------------
 
 SOLVING FOR HEAD 
 INITIAL HNEW IS AN EXACT SOLUTION.

 NO OUTPUT CONTROL FOR STRESS PERIOD   25   TIME STEP 1366

 -------------------------------------------------------------------------------
                             SWR1 OUTPUT PRINT TIMES
                        STRESS PERIOD   25   TIME STEP  1366
 --------------- --------------- --------------- --------------- ---------------
     0.25032E+06                                                                
 -------------------------------------------------------------------------------
 
 SOLVING FOR HEAD 
 INITIAL HNEW IS AN EXACT SOLUTION.

 NO OUTPUT CONTROL FOR STRESS PERIOD   25   TIME STEP 1367

 -------------------------------------------------------------------------------
                             SWR1 OUTPUT PRINT TIMES
                        STRESS PERIOD   25   TIME STEP  1367
 --------------- --------------- --------------- --------------- ---------------
     0.25044E+06                                                                
 -------------------------------------------------------------------------------
 
 SOLVING FOR HEAD 
 INITIAL HNEW IS AN EXACT SOLUTION.

 NO OUTPUT CONTROL FOR STRESS PERIOD   25   TIME STEP 1368

 -------------------------------------------------------------------------------
                             SWR1 OUTPUT PRINT TIMES
                        STRESS PERIOD   25   TIME STEP  1368
 --------------- --------------- --------------- --------------- ---------------
     0.25056E+06                                                                
 -------------------------------------------------------------------------------
 
 SOLVING FOR HEAD 
 INITIAL HNEW IS AN EXACT SOLUTION.

 NO OUTPUT CONTROL FOR STRESS PERIOD   25   TIME STEP 1369

 -------------------------------------------------------------------------------
                             SWR1 OUTPUT PRINT TIMES
                        STRESS PERIOD   25   TIME STEP  1369
 --------------- --------------- --------------- --------------- ---------------
     0.25068E+06                                                                
 -------------------------------------------------------------------------------
 
 SOLVING FOR HEAD 
 INITIAL HNEW IS AN EXACT SOLUTION.

 NO OUTPUT CONTROL FOR STRESS PERIOD   25   TIME STEP 1370

 -------------------------------------------------------------------------------
                             SWR1 OUTPUT PRINT TIMES
                        STRESS PERIOD   25   TIME STEP  1370
 --------------- --------------- --------------- --------------- ---------------
     0.25080E+06                                                                
 -------------------------------------------------------------------------------
 
 SOLVING FOR HEAD 
 INITIAL HNEW IS AN EXACT SOLUTION.

 NO OUTPUT CONTROL FOR STRESS PERIOD   25   TIME STEP 1371

 -------------------------------------------------------------------------------
                             SWR1 OUTPUT PRINT TIMES
                        STRESS PERIOD   25   TIME STEP  1371
 --------------- --------------- --------------- --------------- ---------------
     0.25092E+06                                                                
 -------------------------------------------------------------------------------
 
 SOLVING FOR HEAD 
 INITIAL HNEW IS AN EXACT SOLUTION.

 NO OUTPUT CONTROL FOR STRESS PERIOD   25   TIME STEP 1372

 -------------------------------------------------------------------------------
                             SWR1 OUTPUT PRINT TIMES
                        STRESS PERIOD   25   TIME STEP  1372
 --------------- --------------- --------------- --------------- ---------------
     0.25104E+06                                                                
 -------------------------------------------------------------------------------
 
 SOLVING FOR HEAD 
 INITIAL HNEW IS AN EXACT SOLUTION.

 NO OUTPUT CONTROL FOR STRESS PERIOD   25   TIME STEP 1373

 -------------------------------------------------------------------------------
                             SWR1 OUTPUT PRINT TIMES
                        STRESS PERIOD   25   TIME STEP  1373
 --------------- --------------- --------------- --------------- ---------------
     0.25116E+06                                                                
 -------------------------------------------------------------------------------
 
 SOLVING FOR HEAD 
 INITIAL HNEW IS AN EXACT SOLUTION.

 NO OUTPUT CONTROL FOR STRESS PERIOD   25   TIME STEP 1374

 -------------------------------------------------------------------------------
                             SWR1 OUTPUT PRINT TIMES
                        STRESS PERIOD   25   TIME STEP  1374
 --------------- --------------- --------------- --------------- ---------------
     0.25128E+06                                                                
 -------------------------------------------------------------------------------
 
 SOLVING FOR HEAD 
 INITIAL HNEW IS AN EXACT SOLUTION.

 NO OUTPUT CONTROL FOR STRESS PERIOD   25   TIME STEP 1375

 -------------------------------------------------------------------------------
                             SWR1 OUTPUT PRINT TIMES
                        STRESS PERIOD   25   TIME STEP  1375
 --------------- --------------- --------------- --------------- ---------------
     0.25140E+06                                                                
 -------------------------------------------------------------------------------
 
 SOLVING FOR HEAD 
 INITIAL HNEW IS AN EXACT SOLUTION.

 NO OUTPUT CONTROL FOR STRESS PERIOD   25   TIME STEP 1376

 -------------------------------------------------------------------------------
                             SWR1 OUTPUT PRINT TIMES
                        STRESS PERIOD   25   TIME STEP  1376
 --------------- --------------- --------------- --------------- ---------------
     0.25152E+06                                                                
 -------------------------------------------------------------------------------
 
 SOLVING FOR HEAD 
 INITIAL HNEW IS AN EXACT SOLUTION.

 NO OUTPUT CONTROL FOR STRESS PERIOD   25   TIME STEP 1377

 -------------------------------------------------------------------------------
                             SWR1 OUTPUT PRINT TIMES
                        STRESS PERIOD   25   TIME STEP  1377
 --------------- --------------- --------------- --------------- ---------------
     0.25164E+06                                                                
 -------------------------------------------------------------------------------
 
 SOLVING FOR HEAD 
 INITIAL HNEW IS AN EXACT SOLUTION.

 NO OUTPUT CONTROL FOR STRESS PERIOD   25   TIME STEP 1378

 -------------------------------------------------------------------------------
                             SWR1 OUTPUT PRINT TIMES
                        STRESS PERIOD   25   TIME STEP  1378
 --------------- --------------- --------------- --------------- ---------------
     0.25176E+06                                                                
 -------------------------------------------------------------------------------
 
 SOLVING FOR HEAD 
 INITIAL HNEW IS AN EXACT SOLUTION.

 NO OUTPUT CONTROL FOR STRESS PERIOD   25   TIME STEP 1379

 -------------------------------------------------------------------------------
                             SWR1 OUTPUT PRINT TIMES
                        STRESS PERIOD   25   TIME STEP  1379
 --------------- --------------- --------------- --------------- ---------------
     0.25188E+06                                                                
 -------------------------------------------------------------------------------
 
 SOLVING FOR HEAD 
 INITIAL HNEW IS AN EXACT SOLUTION.

 NO OUTPUT CONTROL FOR STRESS PERIOD   25   TIME STEP 1380

 -------------------------------------------------------------------------------
                             SWR1 OUTPUT PRINT TIMES
                        STRESS PERIOD   25   TIME STEP  1380
 --------------- --------------- --------------- --------------- ---------------
     0.25200E+06                                                                
 -------------------------------------------------------------------------------
 
 SOLVING FOR HEAD 
 INITIAL HNEW IS AN EXACT SOLUTION.

 NO OUTPUT CONTROL FOR STRESS PERIOD   25   TIME STEP 1381

 -------------------------------------------------------------------------------
                             SWR1 OUTPUT PRINT TIMES
                        STRESS PERIOD   25   TIME STEP  1381
 --------------- --------------- --------------- --------------- ---------------
     0.25212E+06                                                                
 -------------------------------------------------------------------------------
 
 SOLVING FOR HEAD 
 INITIAL HNEW IS AN EXACT SOLUTION.

 NO OUTPUT CONTROL FOR STRESS PERIOD   25   TIME STEP 1382

 -------------------------------------------------------------------------------
                             SWR1 OUTPUT PRINT TIMES
                        STRESS PERIOD   25   TIME STEP  1382
 --------------- --------------- --------------- --------------- ---------------
     0.25224E+06                                                                
 -------------------------------------------------------------------------------
 
 SOLVING FOR HEAD 
 INITIAL HNEW IS AN EXACT SOLUTION.

 NO OUTPUT CONTROL FOR STRESS PERIOD   25   TIME STEP 1383

 -------------------------------------------------------------------------------
                             SWR1 OUTPUT PRINT TIMES
                        STRESS PERIOD   25   TIME STEP  1383
 --------------- --------------- --------------- --------------- ---------------
     0.25236E+06                                                                
 -------------------------------------------------------------------------------
 
 SOLVING FOR HEAD 
 INITIAL HNEW IS AN EXACT SOLUTION.

 NO OUTPUT CONTROL FOR STRESS PERIOD   25   TIME STEP 1384

 -------------------------------------------------------------------------------
                             SWR1 OUTPUT PRINT TIMES
                        STRESS PERIOD   25   TIME STEP  1384
 --------------- --------------- --------------- --------------- ---------------
     0.25248E+06                                                                
 -------------------------------------------------------------------------------
 
 SOLVING FOR HEAD 
 INITIAL HNEW IS AN EXACT SOLUTION.

 NO OUTPUT CONTROL FOR STRESS PERIOD   25   TIME STEP 1385

 -------------------------------------------------------------------------------
                             SWR1 OUTPUT PRINT TIMES
                        STRESS PERIOD   25   TIME STEP  1385
 --------------- --------------- --------------- --------------- ---------------
     0.25260E+06                                                                
 -------------------------------------------------------------------------------
 
 SOLVING FOR HEAD 
 INITIAL HNEW IS AN EXACT SOLUTION.

 NO OUTPUT CONTROL FOR STRESS PERIOD   25   TIME STEP 1386

 -------------------------------------------------------------------------------
                             SWR1 OUTPUT PRINT TIMES
                        STRESS PERIOD   25   TIME STEP  1386
 --------------- --------------- --------------- --------------- ---------------
     0.25272E+06                                                                
 -------------------------------------------------------------------------------
 
 SOLVING FOR HEAD 
 INITIAL HNEW IS AN EXACT SOLUTION.

 NO OUTPUT CONTROL FOR STRESS PERIOD   25   TIME STEP 1387

 -------------------------------------------------------------------------------
                             SWR1 OUTPUT PRINT TIMES
                        STRESS PERIOD   25   TIME STEP  1387
 --------------- --------------- --------------- --------------- ---------------
     0.25284E+06                                                                
 -------------------------------------------------------------------------------
 
 SOLVING FOR HEAD 
 INITIAL HNEW IS AN EXACT SOLUTION.

 NO OUTPUT CONTROL FOR STRESS PERIOD   25   TIME STEP 1388

 -------------------------------------------------------------------------------
                             SWR1 OUTPUT PRINT TIMES
                        STRESS PERIOD   25   TIME STEP  1388
 --------------- --------------- --------------- --------------- ---------------
     0.25296E+06                                                                
 -------------------------------------------------------------------------------
 
 SOLVING FOR HEAD 
 INITIAL HNEW IS AN EXACT SOLUTION.

 NO OUTPUT CONTROL FOR STRESS PERIOD   25   TIME STEP 1389

 -------------------------------------------------------------------------------
                             SWR1 OUTPUT PRINT TIMES
                        STRESS PERIOD   25   TIME STEP  1389
 --------------- --------------- --------------- --------------- ---------------
     0.25308E+06                                                                
 -------------------------------------------------------------------------------
 
 SOLVING FOR HEAD 
 INITIAL HNEW IS AN EXACT SOLUTION.

 NO OUTPUT CONTROL FOR STRESS PERIOD   25   TIME STEP 1390

 -------------------------------------------------------------------------------
                             SWR1 OUTPUT PRINT TIMES
                        STRESS PERIOD   25   TIME STEP  1390
 --------------- --------------- --------------- --------------- ---------------
     0.25320E+06                                                                
 -------------------------------------------------------------------------------
 
 SOLVING FOR HEAD 
 INITIAL HNEW IS AN EXACT SOLUTION.

 NO OUTPUT CONTROL FOR STRESS PERIOD   25   TIME STEP 1391

 -------------------------------------------------------------------------------
                             SWR1 OUTPUT PRINT TIMES
                        STRESS PERIOD   25   TIME STEP  1391
 --------------- --------------- --------------- --------------- ---------------
     0.25332E+06                                                                
 -------------------------------------------------------------------------------
 
 SOLVING FOR HEAD 
 INITIAL HNEW IS AN EXACT SOLUTION.

 NO OUTPUT CONTROL FOR STRESS PERIOD   25   TIME STEP 1392

 -------------------------------------------------------------------------------
                             SWR1 OUTPUT PRINT TIMES
                        STRESS PERIOD   25   TIME STEP  1392
 --------------- --------------- --------------- --------------- ---------------
     0.25344E+06                                                                
 -------------------------------------------------------------------------------
 
 SOLVING FOR HEAD 
 INITIAL HNEW IS AN EXACT SOLUTION.

 NO OUTPUT CONTROL FOR STRESS PERIOD   25   TIME STEP 1393

 -------------------------------------------------------------------------------
                             SWR1 OUTPUT PRINT TIMES
                        STRESS PERIOD   25   TIME STEP  1393
 --------------- --------------- --------------- --------------- ---------------
     0.25356E+06                                                                
 -------------------------------------------------------------------------------
 
 SOLVING FOR HEAD 
 INITIAL HNEW IS AN EXACT SOLUTION.

 NO OUTPUT CONTROL FOR STRESS PERIOD   25   TIME STEP 1394

 -------------------------------------------------------------------------------
                             SWR1 OUTPUT PRINT TIMES
                        STRESS PERIOD   25   TIME STEP  1394
 --------------- --------------- --------------- --------------- ---------------
     0.25368E+06                                                                
 -------------------------------------------------------------------------------
 
 SOLVING FOR HEAD 
 INITIAL HNEW IS AN EXACT SOLUTION.

 NO OUTPUT CONTROL FOR STRESS PERIOD   25   TIME STEP 1395

 -------------------------------------------------------------------------------
                             SWR1 OUTPUT PRINT TIMES
                        STRESS PERIOD   25   TIME STEP  1395
 --------------- --------------- --------------- --------------- ---------------
     0.25380E+06                                                                
 -------------------------------------------------------------------------------
 
 SOLVING FOR HEAD 
 INITIAL HNEW IS AN EXACT SOLUTION.

 NO OUTPUT CONTROL FOR STRESS PERIOD   25   TIME STEP 1396

 -------------------------------------------------------------------------------
                             SWR1 OUTPUT PRINT TIMES
                        STRESS PERIOD   25   TIME STEP  1396
 --------------- --------------- --------------- --------------- ---------------
     0.25392E+06                                                                
 -------------------------------------------------------------------------------
 
 SOLVING FOR HEAD 
 INITIAL HNEW IS AN EXACT SOLUTION.

 NO OUTPUT CONTROL FOR STRESS PERIOD   25   TIME STEP 1397

 -------------------------------------------------------------------------------
                             SWR1 OUTPUT PRINT TIMES
                        STRESS PERIOD   25   TIME STEP  1397
 --------------- --------------- --------------- --------------- ---------------
     0.25404E+06                                                                
 -------------------------------------------------------------------------------
 
 SOLVING FOR HEAD 
 INITIAL HNEW IS AN EXACT SOLUTION.

 NO OUTPUT CONTROL FOR STRESS PERIOD   25   TIME STEP 1398

 -------------------------------------------------------------------------------
                             SWR1 OUTPUT PRINT TIMES
                        STRESS PERIOD   25   TIME STEP  1398
 --------------- --------------- --------------- --------------- ---------------
     0.25416E+06                                                                
 -------------------------------------------------------------------------------
 
 SOLVING FOR HEAD 
 INITIAL HNEW IS AN EXACT SOLUTION.

 NO OUTPUT CONTROL FOR STRESS PERIOD   25   TIME STEP 1399

 -------------------------------------------------------------------------------
                             SWR1 OUTPUT PRINT TIMES
                        STRESS PERIOD   25   TIME STEP  1399
 --------------- --------------- --------------- --------------- ---------------
     0.25428E+06                                                                
 -------------------------------------------------------------------------------
 
 SOLVING FOR HEAD 
 INITIAL HNEW IS AN EXACT SOLUTION.

 NO OUTPUT CONTROL FOR STRESS PERIOD   25   TIME STEP 1400

 -------------------------------------------------------------------------------
                             SWR1 OUTPUT PRINT TIMES
                        STRESS PERIOD   25   TIME STEP  1400
 --------------- --------------- --------------- --------------- ---------------
     0.25440E+06                                                                
 -------------------------------------------------------------------------------
 
 SOLVING FOR HEAD 
 INITIAL HNEW IS AN EXACT SOLUTION.

 NO OUTPUT CONTROL FOR STRESS PERIOD   25   TIME STEP 1401

 -------------------------------------------------------------------------------
                             SWR1 OUTPUT PRINT TIMES
                        STRESS PERIOD   25   TIME STEP  1401
 --------------- --------------- --------------- --------------- ---------------
     0.25452E+06                                                                
 -------------------------------------------------------------------------------
 
 SOLVING FOR HEAD 
 INITIAL HNEW IS AN EXACT SOLUTION.

 NO OUTPUT CONTROL FOR STRESS PERIOD   25   TIME STEP 1402

 -------------------------------------------------------------------------------
                             SWR1 OUTPUT PRINT TIMES
                        STRESS PERIOD   25   TIME STEP  1402
 --------------- --------------- --------------- --------------- ---------------
     0.25464E+06                                                                
 -------------------------------------------------------------------------------
 
 SOLVING FOR HEAD 
 INITIAL HNEW IS AN EXACT SOLUTION.

 NO OUTPUT CONTROL FOR STRESS PERIOD   25   TIME STEP 1403

 -------------------------------------------------------------------------------
                             SWR1 OUTPUT PRINT TIMES
                        STRESS PERIOD   25   TIME STEP  1403
 --------------- --------------- --------------- --------------- ---------------
     0.25476E+06                                                                
 -------------------------------------------------------------------------------
 
 SOLVING FOR HEAD 
 INITIAL HNEW IS AN EXACT SOLUTION.

 NO OUTPUT CONTROL FOR STRESS PERIOD   25   TIME STEP 1404

 -------------------------------------------------------------------------------
                             SWR1 OUTPUT PRINT TIMES
                        STRESS PERIOD   25   TIME STEP  1404
 --------------- --------------- --------------- --------------- ---------------
     0.25488E+06                                                                
 -------------------------------------------------------------------------------
 
 SOLVING FOR HEAD 
 INITIAL HNEW IS AN EXACT SOLUTION.

 NO OUTPUT CONTROL FOR STRESS PERIOD   25   TIME STEP 1405

 -------------------------------------------------------------------------------
                             SWR1 OUTPUT PRINT TIMES
                        STRESS PERIOD   25   TIME STEP  1405
 --------------- --------------- --------------- --------------- ---------------
     0.25500E+06                                                                
 -------------------------------------------------------------------------------
 
 SOLVING FOR HEAD 
 INITIAL HNEW IS AN EXACT SOLUTION.

 NO OUTPUT CONTROL FOR STRESS PERIOD   25   TIME STEP 1406

 -------------------------------------------------------------------------------
                             SWR1 OUTPUT PRINT TIMES
                        STRESS PERIOD   25   TIME STEP  1406
 --------------- --------------- --------------- --------------- ---------------
     0.25512E+06                                                                
 -------------------------------------------------------------------------------
 
 SOLVING FOR HEAD 
 INITIAL HNEW IS AN EXACT SOLUTION.

 NO OUTPUT CONTROL FOR STRESS PERIOD   25   TIME STEP 1407

 -------------------------------------------------------------------------------
                             SWR1 OUTPUT PRINT TIMES
                        STRESS PERIOD   25   TIME STEP  1407
 --------------- --------------- --------------- --------------- ---------------
     0.25524E+06                                                                
 -------------------------------------------------------------------------------
 
 SOLVING FOR HEAD 
 INITIAL HNEW IS AN EXACT SOLUTION.

 NO OUTPUT CONTROL FOR STRESS PERIOD   25   TIME STEP 1408

 -------------------------------------------------------------------------------
                             SWR1 OUTPUT PRINT TIMES
                        STRESS PERIOD   25   TIME STEP  1408
 --------------- --------------- --------------- --------------- ---------------
     0.25536E+06                                                                
 -------------------------------------------------------------------------------
 
 SOLVING FOR HEAD 
 INITIAL HNEW IS AN EXACT SOLUTION.

 NO OUTPUT CONTROL FOR STRESS PERIOD   25   TIME STEP 1409

 -------------------------------------------------------------------------------
                             SWR1 OUTPUT PRINT TIMES
                        STRESS PERIOD   25   TIME STEP  1409
 --------------- --------------- --------------- --------------- ---------------
     0.25548E+06                                                                
 -------------------------------------------------------------------------------
 
 SOLVING FOR HEAD 
 INITIAL HNEW IS AN EXACT SOLUTION.

 NO OUTPUT CONTROL FOR STRESS PERIOD   25   TIME STEP 1410

 -------------------------------------------------------------------------------
                             SWR1 OUTPUT PRINT TIMES
                        STRESS PERIOD   25   TIME STEP  1410
 --------------- --------------- --------------- --------------- ---------------
     0.25560E+06                                                                
 -------------------------------------------------------------------------------
 
 SOLVING FOR HEAD 
 INITIAL HNEW IS AN EXACT SOLUTION.

 NO OUTPUT CONTROL FOR STRESS PERIOD   25   TIME STEP 1411

 -------------------------------------------------------------------------------
                             SWR1 OUTPUT PRINT TIMES
                        STRESS PERIOD   25   TIME STEP  1411
 --------------- --------------- --------------- --------------- ---------------
     0.25572E+06                                                                
 -------------------------------------------------------------------------------
 
 SOLVING FOR HEAD 
 INITIAL HNEW IS AN EXACT SOLUTION.

 NO OUTPUT CONTROL FOR STRESS PERIOD   25   TIME STEP 1412

 -------------------------------------------------------------------------------
                             SWR1 OUTPUT PRINT TIMES
                        STRESS PERIOD   25   TIME STEP  1412
 --------------- --------------- --------------- --------------- ---------------
     0.25584E+06                                                                
 -------------------------------------------------------------------------------
 
 SOLVING FOR HEAD 
 INITIAL HNEW IS AN EXACT SOLUTION.

 NO OUTPUT CONTROL FOR STRESS PERIOD   25   TIME STEP 1413

 -------------------------------------------------------------------------------
                             SWR1 OUTPUT PRINT TIMES
                        STRESS PERIOD   25   TIME STEP  1413
 --------------- --------------- --------------- --------------- ---------------
     0.25596E+06                                                                
 -------------------------------------------------------------------------------
 
 SOLVING FOR HEAD 
 INITIAL HNEW IS AN EXACT SOLUTION.

 NO OUTPUT CONTROL FOR STRESS PERIOD   25   TIME STEP 1414

 -------------------------------------------------------------------------------
                             SWR1 OUTPUT PRINT TIMES
                        STRESS PERIOD   25   TIME STEP  1414
 --------------- --------------- --------------- --------------- ---------------
     0.25608E+06                                                                
 -------------------------------------------------------------------------------
 
 SOLVING FOR HEAD 
 INITIAL HNEW IS AN EXACT SOLUTION.

 NO OUTPUT CONTROL FOR STRESS PERIOD   25   TIME STEP 1415

 -------------------------------------------------------------------------------
                             SWR1 OUTPUT PRINT TIMES
                        STRESS PERIOD   25   TIME STEP  1415
 --------------- --------------- --------------- --------------- ---------------
     0.25620E+06                                                                
 -------------------------------------------------------------------------------
 
 SOLVING FOR HEAD 
 INITIAL HNEW IS AN EXACT SOLUTION.

 NO OUTPUT CONTROL FOR STRESS PERIOD   25   TIME STEP 1416

 -------------------------------------------------------------------------------
                             SWR1 OUTPUT PRINT TIMES
                        STRESS PERIOD   25   TIME STEP  1416
 --------------- --------------- --------------- --------------- ---------------
     0.25632E+06                                                                
 -------------------------------------------------------------------------------
 
 SOLVING FOR HEAD 
 INITIAL HNEW IS AN EXACT SOLUTION.

 NO OUTPUT CONTROL FOR STRESS PERIOD   25   TIME STEP 1417

 -------------------------------------------------------------------------------
                             SWR1 OUTPUT PRINT TIMES
                        STRESS PERIOD   25   TIME STEP  1417
 --------------- --------------- --------------- --------------- ---------------
     0.25644E+06                                                                
 -------------------------------------------------------------------------------
 
 SOLVING FOR HEAD 
 INITIAL HNEW IS AN EXACT SOLUTION.

 NO OUTPUT CONTROL FOR STRESS PERIOD   25   TIME STEP 1418

 -------------------------------------------------------------------------------
                             SWR1 OUTPUT PRINT TIMES
                        STRESS PERIOD   25   TIME STEP  1418
 --------------- --------------- --------------- --------------- ---------------
     0.25656E+06                                                                
 -------------------------------------------------------------------------------
 
 SOLVING FOR HEAD 
 INITIAL HNEW IS AN EXACT SOLUTION.

 NO OUTPUT CONTROL FOR STRESS PERIOD   25   TIME STEP 1419

 -------------------------------------------------------------------------------
                             SWR1 OUTPUT PRINT TIMES
                        STRESS PERIOD   25   TIME STEP  1419
 --------------- --------------- --------------- --------------- ---------------
     0.25668E+06                                                                
 -------------------------------------------------------------------------------
 
 SOLVING FOR HEAD 
 INITIAL HNEW IS AN EXACT SOLUTION.

 NO OUTPUT CONTROL FOR STRESS PERIOD   25   TIME STEP 1420

 -------------------------------------------------------------------------------
                             SWR1 OUTPUT PRINT TIMES
                        STRESS PERIOD   25   TIME STEP  1420
 --------------- --------------- --------------- --------------- ---------------
     0.25680E+06                                                                
 -------------------------------------------------------------------------------
 
 SOLVING FOR HEAD 
 INITIAL HNEW IS AN EXACT SOLUTION.

 NO OUTPUT CONTROL FOR STRESS PERIOD   25   TIME STEP 1421

 -------------------------------------------------------------------------------
                             SWR1 OUTPUT PRINT TIMES
                        STRESS PERIOD   25   TIME STEP  1421
 --------------- --------------- --------------- --------------- ---------------
     0.25692E+06                                                                
 -------------------------------------------------------------------------------
 
 SOLVING FOR HEAD 
 INITIAL HNEW IS AN EXACT SOLUTION.

 NO OUTPUT CONTROL FOR STRESS PERIOD   25   TIME STEP 1422

 -------------------------------------------------------------------------------
                             SWR1 OUTPUT PRINT TIMES
                        STRESS PERIOD   25   TIME STEP  1422
 --------------- --------------- --------------- --------------- ---------------
     0.25704E+06                                                                
 -------------------------------------------------------------------------------
 
 SOLVING FOR HEAD 
 INITIAL HNEW IS AN EXACT SOLUTION.

 NO OUTPUT CONTROL FOR STRESS PERIOD   25   TIME STEP 1423

 -------------------------------------------------------------------------------
                             SWR1 OUTPUT PRINT TIMES
                        STRESS PERIOD   25   TIME STEP  1423
 --------------- --------------- --------------- --------------- ---------------
     0.25716E+06                                                                
 -------------------------------------------------------------------------------
 
 SOLVING FOR HEAD 
 INITIAL HNEW IS AN EXACT SOLUTION.

 NO OUTPUT CONTROL FOR STRESS PERIOD   25   TIME STEP 1424

 -------------------------------------------------------------------------------
                             SWR1 OUTPUT PRINT TIMES
                        STRESS PERIOD   25   TIME STEP  1424
 --------------- --------------- --------------- --------------- ---------------
     0.25728E+06                                                                
 -------------------------------------------------------------------------------
 
 SOLVING FOR HEAD 
 INITIAL HNEW IS AN EXACT SOLUTION.

 NO OUTPUT CONTROL FOR STRESS PERIOD   25   TIME STEP 1425

 -------------------------------------------------------------------------------
                             SWR1 OUTPUT PRINT TIMES
                        STRESS PERIOD   25   TIME STEP  1425
 --------------- --------------- --------------- --------------- ---------------
     0.25740E+06                                                                
 -------------------------------------------------------------------------------
 
 SOLVING FOR HEAD 
 INITIAL HNEW IS AN EXACT SOLUTION.

 NO OUTPUT CONTROL FOR STRESS PERIOD   25   TIME STEP 1426

 -------------------------------------------------------------------------------
                             SWR1 OUTPUT PRINT TIMES
                        STRESS PERIOD   25   TIME STEP  1426
 --------------- --------------- --------------- --------------- ---------------
     0.25752E+06                                                                
 -------------------------------------------------------------------------------
 
 SOLVING FOR HEAD 
 INITIAL HNEW IS AN EXACT SOLUTION.

 NO OUTPUT CONTROL FOR STRESS PERIOD   25   TIME STEP 1427

 -------------------------------------------------------------------------------
                             SWR1 OUTPUT PRINT TIMES
                        STRESS PERIOD   25   TIME STEP  1427
 --------------- --------------- --------------- --------------- ---------------
     0.25764E+06                                                                
 -------------------------------------------------------------------------------
 
 SOLVING FOR HEAD 
 INITIAL HNEW IS AN EXACT SOLUTION.

 NO OUTPUT CONTROL FOR STRESS PERIOD   25   TIME STEP 1428

 -------------------------------------------------------------------------------
                             SWR1 OUTPUT PRINT TIMES
                        STRESS PERIOD   25   TIME STEP  1428
 --------------- --------------- --------------- --------------- ---------------
     0.25776E+06                                                                
 -------------------------------------------------------------------------------
 
 SOLVING FOR HEAD 
 INITIAL HNEW IS AN EXACT SOLUTION.

 NO OUTPUT CONTROL FOR STRESS PERIOD   25   TIME STEP 1429

 -------------------------------------------------------------------------------
                             SWR1 OUTPUT PRINT TIMES
                        STRESS PERIOD   25   TIME STEP  1429
 --------------- --------------- --------------- --------------- ---------------
     0.25788E+06                                                                
 -------------------------------------------------------------------------------
 
 SOLVING FOR HEAD 
 INITIAL HNEW IS AN EXACT SOLUTION.

 NO OUTPUT CONTROL FOR STRESS PERIOD   25   TIME STEP 1430

 -------------------------------------------------------------------------------
                             SWR1 OUTPUT PRINT TIMES
                        STRESS PERIOD   25   TIME STEP  1430
 --------------- --------------- --------------- --------------- ---------------
     0.25800E+06                                                                
 -------------------------------------------------------------------------------
 
 SOLVING FOR HEAD 
 INITIAL HNEW IS AN EXACT SOLUTION.

 NO OUTPUT CONTROL FOR STRESS PERIOD   25   TIME STEP 1431

 -------------------------------------------------------------------------------
                             SWR1 OUTPUT PRINT TIMES
                        STRESS PERIOD   25   TIME STEP  1431
 --------------- --------------- --------------- --------------- ---------------
     0.25812E+06                                                                
 -------------------------------------------------------------------------------
 
 SOLVING FOR HEAD 
 INITIAL HNEW IS AN EXACT SOLUTION.

 NO OUTPUT CONTROL FOR STRESS PERIOD   25   TIME STEP 1432

 -------------------------------------------------------------------------------
                             SWR1 OUTPUT PRINT TIMES
                        STRESS PERIOD   25   TIME STEP  1432
 --------------- --------------- --------------- --------------- ---------------
     0.25824E+06                                                                
 -------------------------------------------------------------------------------
 
 SOLVING FOR HEAD 
 INITIAL HNEW IS AN EXACT SOLUTION.

 NO OUTPUT CONTROL FOR STRESS PERIOD   25   TIME STEP 1433

 -------------------------------------------------------------------------------
                             SWR1 OUTPUT PRINT TIMES
                        STRESS PERIOD   25   TIME STEP  1433
 --------------- --------------- --------------- --------------- ---------------
     0.25836E+06                                                                
 -------------------------------------------------------------------------------
 
 SOLVING FOR HEAD 
 INITIAL HNEW IS AN EXACT SOLUTION.

 NO OUTPUT CONTROL FOR STRESS PERIOD   25   TIME STEP 1434

 -------------------------------------------------------------------------------
                             SWR1 OUTPUT PRINT TIMES
                        STRESS PERIOD   25   TIME STEP  1434
 --------------- --------------- --------------- --------------- ---------------
     0.25848E+06                                                                
 -------------------------------------------------------------------------------
 
 SOLVING FOR HEAD 
 INITIAL HNEW IS AN EXACT SOLUTION.

 NO OUTPUT CONTROL FOR STRESS PERIOD   25   TIME STEP 1435

 -------------------------------------------------------------------------------
                             SWR1 OUTPUT PRINT TIMES
                        STRESS PERIOD   25   TIME STEP  1435
 --------------- --------------- --------------- --------------- ---------------
     0.25860E+06                                                                
 -------------------------------------------------------------------------------
 
 SOLVING FOR HEAD 
 INITIAL HNEW IS AN EXACT SOLUTION.

 NO OUTPUT CONTROL FOR STRESS PERIOD   25   TIME STEP 1436

 -------------------------------------------------------------------------------
                             SWR1 OUTPUT PRINT TIMES
                        STRESS PERIOD   25   TIME STEP  1436
 --------------- --------------- --------------- --------------- ---------------
     0.25872E+06                                                                
 -------------------------------------------------------------------------------
 
 SOLVING FOR HEAD 
 INITIAL HNEW IS AN EXACT SOLUTION.

 NO OUTPUT CONTROL FOR STRESS PERIOD   25   TIME STEP 1437

 -------------------------------------------------------------------------------
                             SWR1 OUTPUT PRINT TIMES
                        STRESS PERIOD   25   TIME STEP  1437
 --------------- --------------- --------------- --------------- ---------------
     0.25884E+06                                                                
 -------------------------------------------------------------------------------
 
 SOLVING FOR HEAD 
 INITIAL HNEW IS AN EXACT SOLUTION.

 NO OUTPUT CONTROL FOR STRESS PERIOD   25   TIME STEP 1438

 -------------------------------------------------------------------------------
                             SWR1 OUTPUT PRINT TIMES
                        STRESS PERIOD   25   TIME STEP  1438
 --------------- --------------- --------------- --------------- ---------------
     0.25896E+06                                                                
 -------------------------------------------------------------------------------
 
 SOLVING FOR HEAD 
 INITIAL HNEW IS AN EXACT SOLUTION.

 NO OUTPUT CONTROL FOR STRESS PERIOD   25   TIME STEP 1439

 -------------------------------------------------------------------------------
                             SWR1 OUTPUT PRINT TIMES
                        STRESS PERIOD   25   TIME STEP  1439
 --------------- --------------- --------------- --------------- ---------------
     0.25908E+06                                                                
 -------------------------------------------------------------------------------
 
 SOLVING FOR HEAD 
 INITIAL HNEW IS AN EXACT SOLUTION.

 NO OUTPUT CONTROL FOR STRESS PERIOD   25   TIME STEP 1440

 -------------------------------------------------------------------------------
                             SWR1 OUTPUT PRINT TIMES
                        STRESS PERIOD   25   TIME STEP  1440
 --------------- --------------- --------------- --------------- ---------------
     0.25920E+06                                                                
 -------------------------------------------------------------------------------
 
 SOLVING FOR HEAD 
 INITIAL HNEW IS AN EXACT SOLUTION.

 NO OUTPUT CONTROL FOR STRESS PERIOD   25   TIME STEP 1441

 -------------------------------------------------------------------------------
                             SWR1 OUTPUT PRINT TIMES
                        STRESS PERIOD   25   TIME STEP  1441
 --------------- --------------- --------------- --------------- ---------------
     0.25932E+06                                                                
 -------------------------------------------------------------------------------
 
 SOLVING FOR HEAD 
 INITIAL HNEW IS AN EXACT SOLUTION.

 NO OUTPUT CONTROL FOR STRESS PERIOD   25   TIME STEP 1442

 -------------------------------------------------------------------------------
                             SWR1 OUTPUT PRINT TIMES
                        STRESS PERIOD   25   TIME STEP  1442
 --------------- --------------- --------------- --------------- ---------------
     0.25944E+06                                                                
 -------------------------------------------------------------------------------
 
 SOLVING FOR HEAD 
 INITIAL HNEW IS AN EXACT SOLUTION.

 NO OUTPUT CONTROL FOR STRESS PERIOD   25   TIME STEP 1443

 -------------------------------------------------------------------------------
                             SWR1 OUTPUT PRINT TIMES
                        STRESS PERIOD   25   TIME STEP  1443
 --------------- --------------- --------------- --------------- ---------------
     0.25956E+06                                                                
 -------------------------------------------------------------------------------
 
 SOLVING FOR HEAD 
 INITIAL HNEW IS AN EXACT SOLUTION.

 NO OUTPUT CONTROL FOR STRESS PERIOD   25   TIME STEP 1444

 -------------------------------------------------------------------------------
                             SWR1 OUTPUT PRINT TIMES
                        STRESS PERIOD   25   TIME STEP  1444
 --------------- --------------- --------------- --------------- ---------------
     0.25968E+06                                                                
 -------------------------------------------------------------------------------
 
 SOLVING FOR HEAD 
 INITIAL HNEW IS AN EXACT SOLUTION.

 NO OUTPUT CONTROL FOR STRESS PERIOD   25   TIME STEP 1445

 -------------------------------------------------------------------------------
                             SWR1 OUTPUT PRINT TIMES
                        STRESS PERIOD   25   TIME STEP  1445
 --------------- --------------- --------------- --------------- ---------------
     0.25980E+06                                                                
 -------------------------------------------------------------------------------
 
 SOLVING FOR HEAD 
 INITIAL HNEW IS AN EXACT SOLUTION.

 NO OUTPUT CONTROL FOR STRESS PERIOD   25   TIME STEP 1446

 -------------------------------------------------------------------------------
                             SWR1 OUTPUT PRINT TIMES
                        STRESS PERIOD   25   TIME STEP  1446
 --------------- --------------- --------------- --------------- ---------------
     0.25992E+06                                                                
 -------------------------------------------------------------------------------
 
 SOLVING FOR HEAD 
 INITIAL HNEW IS AN EXACT SOLUTION.

 NO OUTPUT CONTROL FOR STRESS PERIOD   25   TIME STEP 1447

 -------------------------------------------------------------------------------
                             SWR1 OUTPUT PRINT TIMES
                        STRESS PERIOD   25   TIME STEP  1447
 --------------- --------------- --------------- --------------- ---------------
     0.26004E+06                                                                
 -------------------------------------------------------------------------------
 
 SOLVING FOR HEAD 
 INITIAL HNEW IS AN EXACT SOLUTION.

 NO OUTPUT CONTROL FOR STRESS PERIOD   25   TIME STEP 1448

 -------------------------------------------------------------------------------
                             SWR1 OUTPUT PRINT TIMES
                        STRESS PERIOD   25   TIME STEP  1448
 --------------- --------------- --------------- --------------- ---------------
     0.26016E+06                                                                
 -------------------------------------------------------------------------------
 
 SOLVING FOR HEAD 
 INITIAL HNEW IS AN EXACT SOLUTION.

 NO OUTPUT CONTROL FOR STRESS PERIOD   25   TIME STEP 1449

 -------------------------------------------------------------------------------
                             SWR1 OUTPUT PRINT TIMES
                        STRESS PERIOD   25   TIME STEP  1449
 --------------- --------------- --------------- --------------- ---------------
     0.26028E+06                                                                
 -------------------------------------------------------------------------------
 
 SOLVING FOR HEAD 
 INITIAL HNEW IS AN EXACT SOLUTION.

 NO OUTPUT CONTROL FOR STRESS PERIOD   25   TIME STEP 1450

 -------------------------------------------------------------------------------
                             SWR1 OUTPUT PRINT TIMES
                        STRESS PERIOD   25   TIME STEP  1450
 --------------- --------------- --------------- --------------- ---------------
     0.26040E+06                                                                
 -------------------------------------------------------------------------------
 
 SOLVING FOR HEAD 
 INITIAL HNEW IS AN EXACT SOLUTION.

 NO OUTPUT CONTROL FOR STRESS PERIOD   25   TIME STEP 1451

 -------------------------------------------------------------------------------
                             SWR1 OUTPUT PRINT TIMES
                        STRESS PERIOD   25   TIME STEP  1451
 --------------- --------------- --------------- --------------- ---------------
     0.26052E+06                                                                
 -------------------------------------------------------------------------------
 
 SOLVING FOR HEAD 
 INITIAL HNEW IS AN EXACT SOLUTION.

 NO OUTPUT CONTROL FOR STRESS PERIOD   25   TIME STEP 1452

 -------------------------------------------------------------------------------
                             SWR1 OUTPUT PRINT TIMES
                        STRESS PERIOD   25   TIME STEP  1452
 --------------- --------------- --------------- --------------- ---------------
     0.26064E+06                                                                
 -------------------------------------------------------------------------------
 
 SOLVING FOR HEAD 
 INITIAL HNEW IS AN EXACT SOLUTION.

 NO OUTPUT CONTROL FOR STRESS PERIOD   25   TIME STEP 1453

 -------------------------------------------------------------------------------
                             SWR1 OUTPUT PRINT TIMES
                        STRESS PERIOD   25   TIME STEP  1453
 --------------- --------------- --------------- --------------- ---------------
     0.26076E+06                                                                
 -------------------------------------------------------------------------------
 
 SOLVING FOR HEAD 
 INITIAL HNEW IS AN EXACT SOLUTION.

 NO OUTPUT CONTROL FOR STRESS PERIOD   25   TIME STEP 1454

 -------------------------------------------------------------------------------
                             SWR1 OUTPUT PRINT TIMES
                        STRESS PERIOD   25   TIME STEP  1454
 --------------- --------------- --------------- --------------- ---------------
     0.26088E+06                                                                
 -------------------------------------------------------------------------------
 
 SOLVING FOR HEAD 
 INITIAL HNEW IS AN EXACT SOLUTION.

 NO OUTPUT CONTROL FOR STRESS PERIOD   25   TIME STEP 1455

 -------------------------------------------------------------------------------
                             SWR1 OUTPUT PRINT TIMES
                        STRESS PERIOD   25   TIME STEP  1455
 --------------- --------------- --------------- --------------- ---------------
     0.26100E+06                                                                
 -------------------------------------------------------------------------------
 
 SOLVING FOR HEAD 
 INITIAL HNEW IS AN EXACT SOLUTION.

 NO OUTPUT CONTROL FOR STRESS PERIOD   25   TIME STEP 1456

 -------------------------------------------------------------------------------
                             SWR1 OUTPUT PRINT TIMES
                        STRESS PERIOD   25   TIME STEP  1456
 --------------- --------------- --------------- --------------- ---------------
     0.26112E+06                                                                
 -------------------------------------------------------------------------------
 
 SOLVING FOR HEAD 
 INITIAL HNEW IS AN EXACT SOLUTION.

 NO OUTPUT CONTROL FOR STRESS PERIOD   25   TIME STEP 1457

 -------------------------------------------------------------------------------
                             SWR1 OUTPUT PRINT TIMES
                        STRESS PERIOD   25   TIME STEP  1457
 --------------- --------------- --------------- --------------- ---------------
     0.26124E+06                                                                
 -------------------------------------------------------------------------------
 
 SOLVING FOR HEAD 
 INITIAL HNEW IS AN EXACT SOLUTION.

 NO OUTPUT CONTROL FOR STRESS PERIOD   25   TIME STEP 1458

 -------------------------------------------------------------------------------
                             SWR1 OUTPUT PRINT TIMES
                        STRESS PERIOD   25   TIME STEP  1458
 --------------- --------------- --------------- --------------- ---------------
     0.26136E+06                                                                
 -------------------------------------------------------------------------------
 
 SOLVING FOR HEAD 
 INITIAL HNEW IS AN EXACT SOLUTION.

 NO OUTPUT CONTROL FOR STRESS PERIOD   25   TIME STEP 1459

 -------------------------------------------------------------------------------
                             SWR1 OUTPUT PRINT TIMES
                        STRESS PERIOD   25   TIME STEP  1459
 --------------- --------------- --------------- --------------- ---------------
     0.26148E+06                                                                
 -------------------------------------------------------------------------------
 
 SOLVING FOR HEAD 
 INITIAL HNEW IS AN EXACT SOLUTION.

 NO OUTPUT CONTROL FOR STRESS PERIOD   25   TIME STEP 1460

 -------------------------------------------------------------------------------
                             SWR1 OUTPUT PRINT TIMES
                        STRESS PERIOD   25   TIME STEP  1460
 --------------- --------------- --------------- --------------- ---------------
     0.26160E+06                                                                
 -------------------------------------------------------------------------------
 
 SOLVING FOR HEAD 
 INITIAL HNEW IS AN EXACT SOLUTION.

 NO OUTPUT CONTROL FOR STRESS PERIOD   25   TIME STEP 1461

 -------------------------------------------------------------------------------
                             SWR1 OUTPUT PRINT TIMES
                        STRESS PERIOD   25   TIME STEP  1461
 --------------- --------------- --------------- --------------- ---------------
     0.26172E+06                                                                
 -------------------------------------------------------------------------------
 
 SOLVING FOR HEAD 
 INITIAL HNEW IS AN EXACT SOLUTION.

 NO OUTPUT CONTROL FOR STRESS PERIOD   25   TIME STEP 1462

 -------------------------------------------------------------------------------
                             SWR1 OUTPUT PRINT TIMES
                        STRESS PERIOD   25   TIME STEP  1462
 --------------- --------------- --------------- --------------- ---------------
     0.26184E+06                                                                
 -------------------------------------------------------------------------------
 
 SOLVING FOR HEAD 
 INITIAL HNEW IS AN EXACT SOLUTION.

 NO OUTPUT CONTROL FOR STRESS PERIOD   25   TIME STEP 1463

 -------------------------------------------------------------------------------
                             SWR1 OUTPUT PRINT TIMES
                        STRESS PERIOD   25   TIME STEP  1463
 --------------- --------------- --------------- --------------- ---------------
     0.26196E+06                                                                
 -------------------------------------------------------------------------------
 
 SOLVING FOR HEAD 
 INITIAL HNEW IS AN EXACT SOLUTION.

 NO OUTPUT CONTROL FOR STRESS PERIOD   25   TIME STEP 1464

 -------------------------------------------------------------------------------
                             SWR1 OUTPUT PRINT TIMES
                        STRESS PERIOD   25   TIME STEP  1464
 --------------- --------------- --------------- --------------- ---------------
     0.26208E+06                                                                
 -------------------------------------------------------------------------------
 
 SOLVING FOR HEAD 
 INITIAL HNEW IS AN EXACT SOLUTION.

 NO OUTPUT CONTROL FOR STRESS PERIOD   25   TIME STEP 1465

 -------------------------------------------------------------------------------
                             SWR1 OUTPUT PRINT TIMES
                        STRESS PERIOD   25   TIME STEP  1465
 --------------- --------------- --------------- --------------- ---------------
     0.26220E+06                                                                
 -------------------------------------------------------------------------------
 
 SOLVING FOR HEAD 
 INITIAL HNEW IS AN EXACT SOLUTION.

 NO OUTPUT CONTROL FOR STRESS PERIOD   25   TIME STEP 1466

 -------------------------------------------------------------------------------
                             SWR1 OUTPUT PRINT TIMES
                        STRESS PERIOD   25   TIME STEP  1466
 --------------- --------------- --------------- --------------- ---------------
     0.26232E+06                                                                
 -------------------------------------------------------------------------------
 
 SOLVING FOR HEAD 
 INITIAL HNEW IS AN EXACT SOLUTION.

 NO OUTPUT CONTROL FOR STRESS PERIOD   25   TIME STEP 1467

 -------------------------------------------------------------------------------
                             SWR1 OUTPUT PRINT TIMES
                        STRESS PERIOD   25   TIME STEP  1467
 --------------- --------------- --------------- --------------- ---------------
     0.26244E+06                                                                
 -------------------------------------------------------------------------------
 
 SOLVING FOR HEAD 
 INITIAL HNEW IS AN EXACT SOLUTION.

 NO OUTPUT CONTROL FOR STRESS PERIOD   25   TIME STEP 1468

 -------------------------------------------------------------------------------
                             SWR1 OUTPUT PRINT TIMES
                        STRESS PERIOD   25   TIME STEP  1468
 --------------- --------------- --------------- --------------- ---------------
     0.26256E+06                                                                
 -------------------------------------------------------------------------------
 
 SOLVING FOR HEAD 
 INITIAL HNEW IS AN EXACT SOLUTION.

 NO OUTPUT CONTROL FOR STRESS PERIOD   25   TIME STEP 1469

 -------------------------------------------------------------------------------
                             SWR1 OUTPUT PRINT TIMES
                        STRESS PERIOD   25   TIME STEP  1469
 --------------- --------------- --------------- --------------- ---------------
     0.26268E+06                                                                
 -------------------------------------------------------------------------------
 
 SOLVING FOR HEAD 
 INITIAL HNEW IS AN EXACT SOLUTION.

 NO OUTPUT CONTROL FOR STRESS PERIOD   25   TIME STEP 1470

 -------------------------------------------------------------------------------
                             SWR1 OUTPUT PRINT TIMES
                        STRESS PERIOD   25   TIME STEP  1470
 --------------- --------------- --------------- --------------- ---------------
     0.26280E+06                                                                
 -------------------------------------------------------------------------------
 
 SOLVING FOR HEAD 
 INITIAL HNEW IS AN EXACT SOLUTION.

 NO OUTPUT CONTROL FOR STRESS PERIOD   25   TIME STEP 1471

 -------------------------------------------------------------------------------
                             SWR1 OUTPUT PRINT TIMES
                        STRESS PERIOD   25   TIME STEP  1471
 --------------- --------------- --------------- --------------- ---------------
     0.26292E+06                                                                
 -------------------------------------------------------------------------------
 
 SOLVING FOR HEAD 
 INITIAL HNEW IS AN EXACT SOLUTION.

 NO OUTPUT CONTROL FOR STRESS PERIOD   25   TIME STEP 1472

 -------------------------------------------------------------------------------
                             SWR1 OUTPUT PRINT TIMES
                        STRESS PERIOD   25   TIME STEP  1472
 --------------- --------------- --------------- --------------- ---------------
     0.26304E+06                                                                
 -------------------------------------------------------------------------------
 
 SOLVING FOR HEAD 
 INITIAL HNEW IS AN EXACT SOLUTION.

 NO OUTPUT CONTROL FOR STRESS PERIOD   25   TIME STEP 1473

 -------------------------------------------------------------------------------
                             SWR1 OUTPUT PRINT TIMES
                        STRESS PERIOD   25   TIME STEP  1473
 --------------- --------------- --------------- --------------- ---------------
     0.26316E+06                                                                
 -------------------------------------------------------------------------------
 
 SOLVING FOR HEAD 
 INITIAL HNEW IS AN EXACT SOLUTION.

 NO OUTPUT CONTROL FOR STRESS PERIOD   25   TIME STEP 1474

 -------------------------------------------------------------------------------
                             SWR1 OUTPUT PRINT TIMES
                        STRESS PERIOD   25   TIME STEP  1474
 --------------- --------------- --------------- --------------- ---------------
     0.26328E+06                                                                
 -------------------------------------------------------------------------------
 
 SOLVING FOR HEAD 
 INITIAL HNEW IS AN EXACT SOLUTION.

 NO OUTPUT CONTROL FOR STRESS PERIOD   25   TIME STEP 1475

 -------------------------------------------------------------------------------
                             SWR1 OUTPUT PRINT TIMES
                        STRESS PERIOD   25   TIME STEP  1475
 --------------- --------------- --------------- --------------- ---------------
     0.26340E+06                                                                
 -------------------------------------------------------------------------------
 
 SOLVING FOR HEAD 
 INITIAL HNEW IS AN EXACT SOLUTION.

 NO OUTPUT CONTROL FOR STRESS PERIOD   25   TIME STEP 1476

 -------------------------------------------------------------------------------
                             SWR1 OUTPUT PRINT TIMES
                        STRESS PERIOD   25   TIME STEP  1476
 --------------- --------------- --------------- --------------- ---------------
     0.26352E+06                                                                
 -------------------------------------------------------------------------------
 
 SOLVING FOR HEAD 
 INITIAL HNEW IS AN EXACT SOLUTION.

 NO OUTPUT CONTROL FOR STRESS PERIOD   25   TIME STEP 1477

 -------------------------------------------------------------------------------
                             SWR1 OUTPUT PRINT TIMES
                        STRESS PERIOD   25   TIME STEP  1477
 --------------- --------------- --------------- --------------- ---------------
     0.26364E+06                                                                
 -------------------------------------------------------------------------------
 
 SOLVING FOR HEAD 
 INITIAL HNEW IS AN EXACT SOLUTION.

 NO OUTPUT CONTROL FOR STRESS PERIOD   25   TIME STEP 1478

 -------------------------------------------------------------------------------
                             SWR1 OUTPUT PRINT TIMES
                        STRESS PERIOD   25   TIME STEP  1478
 --------------- --------------- --------------- --------------- ---------------
     0.26376E+06                                                                
 -------------------------------------------------------------------------------
 
 SOLVING FOR HEAD 
 INITIAL HNEW IS AN EXACT SOLUTION.

 NO OUTPUT CONTROL FOR STRESS PERIOD   25   TIME STEP 1479

 -------------------------------------------------------------------------------
                             SWR1 OUTPUT PRINT TIMES
                        STRESS PERIOD   25   TIME STEP  1479
 --------------- --------------- --------------- --------------- ---------------
     0.26388E+06                                                                
 -------------------------------------------------------------------------------
 
 SOLVING FOR HEAD 
 INITIAL HNEW IS AN EXACT SOLUTION.

 NO OUTPUT CONTROL FOR STRESS PERIOD   25   TIME STEP 1480

 -------------------------------------------------------------------------------
                             SWR1 OUTPUT PRINT TIMES
                        STRESS PERIOD   25   TIME STEP  1480
 --------------- --------------- --------------- --------------- ---------------
     0.26400E+06                                                                
 -------------------------------------------------------------------------------
 
 SOLVING FOR HEAD 
 INITIAL HNEW IS AN EXACT SOLUTION.

 NO OUTPUT CONTROL FOR STRESS PERIOD   25   TIME STEP 1481

 -------------------------------------------------------------------------------
                             SWR1 OUTPUT PRINT TIMES
                        STRESS PERIOD   25   TIME STEP  1481
 --------------- --------------- --------------- --------------- ---------------
     0.26412E+06                                                                
 -------------------------------------------------------------------------------
 
 SOLVING FOR HEAD 
 INITIAL HNEW IS AN EXACT SOLUTION.

 NO OUTPUT CONTROL FOR STRESS PERIOD   25   TIME STEP 1482

 -------------------------------------------------------------------------------
                             SWR1 OUTPUT PRINT TIMES
                        STRESS PERIOD   25   TIME STEP  1482
 --------------- --------------- --------------- --------------- ---------------
     0.26424E+06                                                                
 -------------------------------------------------------------------------------
 
 SOLVING FOR HEAD 
 INITIAL HNEW IS AN EXACT SOLUTION.

 NO OUTPUT CONTROL FOR STRESS PERIOD   25   TIME STEP 1483

 -------------------------------------------------------------------------------
                             SWR1 OUTPUT PRINT TIMES
                        STRESS PERIOD   25   TIME STEP  1483
 --------------- --------------- --------------- --------------- ---------------
     0.26436E+06                                                                
 -------------------------------------------------------------------------------
 
 SOLVING FOR HEAD 
 INITIAL HNEW IS AN EXACT SOLUTION.

 NO OUTPUT CONTROL FOR STRESS PERIOD   25   TIME STEP 1484

 -------------------------------------------------------------------------------
                             SWR1 OUTPUT PRINT TIMES
                        STRESS PERIOD   25   TIME STEP  1484
 --------------- --------------- --------------- --------------- ---------------
     0.26448E+06                                                                
 -------------------------------------------------------------------------------
 
 SOLVING FOR HEAD 
 INITIAL HNEW IS AN EXACT SOLUTION.

 NO OUTPUT CONTROL FOR STRESS PERIOD   25   TIME STEP 1485

 -------------------------------------------------------------------------------
                             SWR1 OUTPUT PRINT TIMES
                        STRESS PERIOD   25   TIME STEP  1485
 --------------- --------------- --------------- --------------- ---------------
     0.26460E+06                                                                
 -------------------------------------------------------------------------------
 
 SOLVING FOR HEAD 
 INITIAL HNEW IS AN EXACT SOLUTION.

 NO OUTPUT CONTROL FOR STRESS PERIOD   25   TIME STEP 1486

 -------------------------------------------------------------------------------
                             SWR1 OUTPUT PRINT TIMES
                        STRESS PERIOD   25   TIME STEP  1486
 --------------- --------------- --------------- --------------- ---------------
     0.26472E+06                                                                
 -------------------------------------------------------------------------------
 
 SOLVING FOR HEAD 
 INITIAL HNEW IS AN EXACT SOLUTION.

 NO OUTPUT CONTROL FOR STRESS PERIOD   25   TIME STEP 1487

 -------------------------------------------------------------------------------
                             SWR1 OUTPUT PRINT TIMES
                        STRESS PERIOD   25   TIME STEP  1487
 --------------- --------------- --------------- --------------- ---------------
     0.26484E+06                                                                
 -------------------------------------------------------------------------------
 
 SOLVING FOR HEAD 
 INITIAL HNEW IS AN EXACT SOLUTION.

 NO OUTPUT CONTROL FOR STRESS PERIOD   25   TIME STEP 1488

 -------------------------------------------------------------------------------
                             SWR1 OUTPUT PRINT TIMES
                        STRESS PERIOD   25   TIME STEP  1488
 --------------- --------------- --------------- --------------- ---------------
     0.26496E+06                                                                
 -------------------------------------------------------------------------------
 
 SOLVING FOR HEAD 
 INITIAL HNEW IS AN EXACT SOLUTION.

 NO OUTPUT CONTROL FOR STRESS PERIOD   25   TIME STEP 1489

 -------------------------------------------------------------------------------
                             SWR1 OUTPUT PRINT TIMES
                        STRESS PERIOD   25   TIME STEP  1489
 --------------- --------------- --------------- --------------- ---------------
     0.26508E+06                                                                
 -------------------------------------------------------------------------------
 
 SOLVING FOR HEAD 
 INITIAL HNEW IS AN EXACT SOLUTION.

 NO OUTPUT CONTROL FOR STRESS PERIOD   25   TIME STEP 1490

 -------------------------------------------------------------------------------
                             SWR1 OUTPUT PRINT TIMES
                        STRESS PERIOD   25   TIME STEP  1490
 --------------- --------------- --------------- --------------- ---------------
     0.26520E+06                                                                
 -------------------------------------------------------------------------------
 
 SOLVING FOR HEAD 
 INITIAL HNEW IS AN EXACT SOLUTION.

 NO OUTPUT CONTROL FOR STRESS PERIOD   25   TIME STEP 1491

 -------------------------------------------------------------------------------
                             SWR1 OUTPUT PRINT TIMES
                        STRESS PERIOD   25   TIME STEP  1491
 --------------- --------------- --------------- --------------- ---------------
     0.26532E+06                                                                
 -------------------------------------------------------------------------------
 
 SOLVING FOR HEAD 
 INITIAL HNEW IS AN EXACT SOLUTION.

 NO OUTPUT CONTROL FOR STRESS PERIOD   25   TIME STEP 1492

 -------------------------------------------------------------------------------
                             SWR1 OUTPUT PRINT TIMES
                        STRESS PERIOD   25   TIME STEP  1492
 --------------- --------------- --------------- --------------- ---------------
     0.26544E+06                                                                
 -------------------------------------------------------------------------------
 
 SOLVING FOR HEAD 
 INITIAL HNEW IS AN EXACT SOLUTION.

 NO OUTPUT CONTROL FOR STRESS PERIOD   25   TIME STEP 1493

 -------------------------------------------------------------------------------
                             SWR1 OUTPUT PRINT TIMES
                        STRESS PERIOD   25   TIME STEP  1493
 --------------- --------------- --------------- --------------- ---------------
     0.26556E+06                                                                
 -------------------------------------------------------------------------------
 
 SOLVING FOR HEAD 
 INITIAL HNEW IS AN EXACT SOLUTION.

 NO OUTPUT CONTROL FOR STRESS PERIOD   25   TIME STEP 1494

 -------------------------------------------------------------------------------
                             SWR1 OUTPUT PRINT TIMES
                        STRESS PERIOD   25   TIME STEP  1494
 --------------- --------------- --------------- --------------- ---------------
     0.26568E+06                                                                
 -------------------------------------------------------------------------------
 
 SOLVING FOR HEAD 
 INITIAL HNEW IS AN EXACT SOLUTION.

 NO OUTPUT CONTROL FOR STRESS PERIOD   25   TIME STEP 1495

 -------------------------------------------------------------------------------
                             SWR1 OUTPUT PRINT TIMES
                        STRESS PERIOD   25   TIME STEP  1495
 --------------- --------------- --------------- --------------- ---------------
     0.26580E+06                                                                
 -------------------------------------------------------------------------------
 
 SOLVING FOR HEAD 
 INITIAL HNEW IS AN EXACT SOLUTION.

 NO OUTPUT CONTROL FOR STRESS PERIOD   25   TIME STEP 1496

 -------------------------------------------------------------------------------
                             SWR1 OUTPUT PRINT TIMES
                        STRESS PERIOD   25   TIME STEP  1496
 --------------- --------------- --------------- --------------- ---------------
     0.26592E+06                                                                
 -------------------------------------------------------------------------------
 
 SOLVING FOR HEAD 
 INITIAL HNEW IS AN EXACT SOLUTION.

 NO OUTPUT CONTROL FOR STRESS PERIOD   25   TIME STEP 1497

 -------------------------------------------------------------------------------
                             SWR1 OUTPUT PRINT TIMES
                        STRESS PERIOD   25   TIME STEP  1497
 --------------- --------------- --------------- --------------- ---------------
     0.26604E+06                                                                
 -------------------------------------------------------------------------------
 
 SOLVING FOR HEAD 
 INITIAL HNEW IS AN EXACT SOLUTION.

 NO OUTPUT CONTROL FOR STRESS PERIOD   25   TIME STEP 1498

 -------------------------------------------------------------------------------
                             SWR1 OUTPUT PRINT TIMES
                        STRESS PERIOD   25   TIME STEP  1498
 --------------- --------------- --------------- --------------- ---------------
     0.26616E+06                                                                
 -------------------------------------------------------------------------------
 
 SOLVING FOR HEAD 
 INITIAL HNEW IS AN EXACT SOLUTION.

 NO OUTPUT CONTROL FOR STRESS PERIOD   25   TIME STEP 1499

 -------------------------------------------------------------------------------
                             SWR1 OUTPUT PRINT TIMES
                        STRESS PERIOD   25   TIME STEP  1499
 --------------- --------------- --------------- --------------- ---------------
     0.26628E+06                                                                
 -------------------------------------------------------------------------------
 
 SOLVING FOR HEAD 
 INITIAL HNEW IS AN EXACT SOLUTION.

 NO OUTPUT CONTROL FOR STRESS PERIOD   25   TIME STEP 1500

 -------------------------------------------------------------------------------
                             SWR1 OUTPUT PRINT TIMES
                        STRESS PERIOD   25   TIME STEP  1500
 --------------- --------------- --------------- --------------- ---------------
     0.26640E+06                                                                
 -------------------------------------------------------------------------------
 
 SOLVING FOR HEAD 
 INITIAL HNEW IS AN EXACT SOLUTION.

 NO OUTPUT CONTROL FOR STRESS PERIOD   25   TIME STEP 1501

 -------------------------------------------------------------------------------
                             SWR1 OUTPUT PRINT TIMES
                        STRESS PERIOD   25   TIME STEP  1501
 --------------- --------------- --------------- --------------- ---------------
     0.26652E+06                                                                
 -------------------------------------------------------------------------------
 
 SOLVING FOR HEAD 
 INITIAL HNEW IS AN EXACT SOLUTION.

 NO OUTPUT CONTROL FOR STRESS PERIOD   25   TIME STEP 1502

 -------------------------------------------------------------------------------
                             SWR1 OUTPUT PRINT TIMES
                        STRESS PERIOD   25   TIME STEP  1502
 --------------- --------------- --------------- --------------- ---------------
     0.26664E+06                                                                
 -------------------------------------------------------------------------------
 
 SOLVING FOR HEAD 
 INITIAL HNEW IS AN EXACT SOLUTION.

 NO OUTPUT CONTROL FOR STRESS PERIOD   25   TIME STEP 1503

 -------------------------------------------------------------------------------
                             SWR1 OUTPUT PRINT TIMES
                        STRESS PERIOD   25   TIME STEP  1503
 --------------- --------------- --------------- --------------- ---------------
     0.26676E+06                                                                
 -------------------------------------------------------------------------------
 
 SOLVING FOR HEAD 
 INITIAL HNEW IS AN EXACT SOLUTION.

 NO OUTPUT CONTROL FOR STRESS PERIOD   25   TIME STEP 1504

 -------------------------------------------------------------------------------
                             SWR1 OUTPUT PRINT TIMES
                        STRESS PERIOD   25   TIME STEP  1504
 --------------- --------------- --------------- --------------- ---------------
     0.26688E+06                                                                
 -------------------------------------------------------------------------------
 
 SOLVING FOR HEAD 
 INITIAL HNEW IS AN EXACT SOLUTION.

 NO OUTPUT CONTROL FOR STRESS PERIOD   25   TIME STEP 1505

 -------------------------------------------------------------------------------
                             SWR1 OUTPUT PRINT TIMES
                        STRESS PERIOD   25   TIME STEP  1505
 --------------- --------------- --------------- --------------- ---------------
     0.26700E+06                                                                
 -------------------------------------------------------------------------------
 
 SOLVING FOR HEAD 
 INITIAL HNEW IS AN EXACT SOLUTION.

 NO OUTPUT CONTROL FOR STRESS PERIOD   25   TIME STEP 1506

 -------------------------------------------------------------------------------
                             SWR1 OUTPUT PRINT TIMES
                        STRESS PERIOD   25   TIME STEP  1506
 --------------- --------------- --------------- --------------- ---------------
     0.26712E+06                                                                
 -------------------------------------------------------------------------------
 
 SOLVING FOR HEAD 
 INITIAL HNEW IS AN EXACT SOLUTION.

 NO OUTPUT CONTROL FOR STRESS PERIOD   25   TIME STEP 1507

 -------------------------------------------------------------------------------
                             SWR1 OUTPUT PRINT TIMES
                        STRESS PERIOD   25   TIME STEP  1507
 --------------- --------------- --------------- --------------- ---------------
     0.26724E+06                                                                
 -------------------------------------------------------------------------------
 
 SOLVING FOR HEAD 
 INITIAL HNEW IS AN EXACT SOLUTION.

 NO OUTPUT CONTROL FOR STRESS PERIOD   25   TIME STEP 1508

 -------------------------------------------------------------------------------
                             SWR1 OUTPUT PRINT TIMES
                        STRESS PERIOD   25   TIME STEP  1508
 --------------- --------------- --------------- --------------- ---------------
     0.26736E+06                                                                
 -------------------------------------------------------------------------------
 
 SOLVING FOR HEAD 
 INITIAL HNEW IS AN EXACT SOLUTION.

 NO OUTPUT CONTROL FOR STRESS PERIOD   25   TIME STEP 1509

 -------------------------------------------------------------------------------
                             SWR1 OUTPUT PRINT TIMES
                        STRESS PERIOD   25   TIME STEP  1509
 --------------- --------------- --------------- --------------- ---------------
     0.26748E+06                                                                
 -------------------------------------------------------------------------------
 
 SOLVING FOR HEAD 
 INITIAL HNEW IS AN EXACT SOLUTION.

 NO OUTPUT CONTROL FOR STRESS PERIOD   25   TIME STEP 1510

 -------------------------------------------------------------------------------
                             SWR1 OUTPUT PRINT TIMES
                        STRESS PERIOD   25   TIME STEP  1510
 --------------- --------------- --------------- --------------- ---------------
     0.26760E+06                                                                
 -------------------------------------------------------------------------------
 
 SOLVING FOR HEAD 
 INITIAL HNEW IS AN EXACT SOLUTION.

 NO OUTPUT CONTROL FOR STRESS PERIOD   25   TIME STEP 1511

 -------------------------------------------------------------------------------
                             SWR1 OUTPUT PRINT TIMES
                        STRESS PERIOD   25   TIME STEP  1511
 --------------- --------------- --------------- --------------- ---------------
     0.26772E+06                                                                
 -------------------------------------------------------------------------------
 
 SOLVING FOR HEAD 
 INITIAL HNEW IS AN EXACT SOLUTION.

 NO OUTPUT CONTROL FOR STRESS PERIOD   25   TIME STEP 1512

 -------------------------------------------------------------------------------
                             SWR1 OUTPUT PRINT TIMES
                        STRESS PERIOD   25   TIME STEP  1512
 --------------- --------------- --------------- --------------- ---------------
     0.26784E+06                                                                
 -------------------------------------------------------------------------------
 
 SOLVING FOR HEAD 
 INITIAL HNEW IS AN EXACT SOLUTION.

 NO OUTPUT CONTROL FOR STRESS PERIOD   25   TIME STEP 1513

 -------------------------------------------------------------------------------
                             SWR1 OUTPUT PRINT TIMES
                        STRESS PERIOD   25   TIME STEP  1513
 --------------- --------------- --------------- --------------- ---------------
     0.26796E+06                                                                
 -------------------------------------------------------------------------------
 
 SOLVING FOR HEAD 
 INITIAL HNEW IS AN EXACT SOLUTION.

 NO OUTPUT CONTROL FOR STRESS PERIOD   25   TIME STEP 1514

 -------------------------------------------------------------------------------
                             SWR1 OUTPUT PRINT TIMES
                        STRESS PERIOD   25   TIME STEP  1514
 --------------- --------------- --------------- --------------- ---------------
     0.26808E+06                                                                
 -------------------------------------------------------------------------------
 
 SOLVING FOR HEAD 
 INITIAL HNEW IS AN EXACT SOLUTION.

 NO OUTPUT CONTROL FOR STRESS PERIOD   25   TIME STEP 1515

 -------------------------------------------------------------------------------
                             SWR1 OUTPUT PRINT TIMES
                        STRESS PERIOD   25   TIME STEP  1515
 --------------- --------------- --------------- --------------- ---------------
     0.26820E+06                                                                
 -------------------------------------------------------------------------------
 
 SOLVING FOR HEAD 
 INITIAL HNEW IS AN EXACT SOLUTION.

 NO OUTPUT CONTROL FOR STRESS PERIOD   25   TIME STEP 1516

 -------------------------------------------------------------------------------
                             SWR1 OUTPUT PRINT TIMES
                        STRESS PERIOD   25   TIME STEP  1516
 --------------- --------------- --------------- --------------- ---------------
     0.26832E+06                                                                
 -------------------------------------------------------------------------------
 
 SOLVING FOR HEAD 
 INITIAL HNEW IS AN EXACT SOLUTION.

 NO OUTPUT CONTROL FOR STRESS PERIOD   25   TIME STEP 1517

 -------------------------------------------------------------------------------
                             SWR1 OUTPUT PRINT TIMES
                        STRESS PERIOD   25   TIME STEP  1517
 --------------- --------------- --------------- --------------- ---------------
     0.26844E+06                                                                
 -------------------------------------------------------------------------------
 
 SOLVING FOR HEAD 
 INITIAL HNEW IS AN EXACT SOLUTION.

 NO OUTPUT CONTROL FOR STRESS PERIOD   25   TIME STEP 1518

 -------------------------------------------------------------------------------
                             SWR1 OUTPUT PRINT TIMES
                        STRESS PERIOD   25   TIME STEP  1518
 --------------- --------------- --------------- --------------- ---------------
     0.26856E+06                                                                
 -------------------------------------------------------------------------------
 
 SOLVING FOR HEAD 
 INITIAL HNEW IS AN EXACT SOLUTION.

 NO OUTPUT CONTROL FOR STRESS PERIOD   25   TIME STEP 1519

 -------------------------------------------------------------------------------
                             SWR1 OUTPUT PRINT TIMES
                        STRESS PERIOD   25   TIME STEP  1519
 --------------- --------------- --------------- --------------- ---------------
     0.26868E+06                                                                
 -------------------------------------------------------------------------------
 
 SOLVING FOR HEAD 
 INITIAL HNEW IS AN EXACT SOLUTION.

 NO OUTPUT CONTROL FOR STRESS PERIOD   25   TIME STEP 1520

 -------------------------------------------------------------------------------
                             SWR1 OUTPUT PRINT TIMES
                        STRESS PERIOD   25   TIME STEP  1520
 --------------- --------------- --------------- --------------- ---------------
     0.26880E+06                                                                
 -------------------------------------------------------------------------------
 
 SOLVING FOR HEAD 
 INITIAL HNEW IS AN EXACT SOLUTION.

 NO OUTPUT CONTROL FOR STRESS PERIOD   25   TIME STEP 1521

 -------------------------------------------------------------------------------
                             SWR1 OUTPUT PRINT TIMES
                        STRESS PERIOD   25   TIME STEP  1521
 --------------- --------------- --------------- --------------- ---------------
     0.26892E+06                                                                
 -------------------------------------------------------------------------------
 
 SOLVING FOR HEAD 
 INITIAL HNEW IS AN EXACT SOLUTION.

 NO OUTPUT CONTROL FOR STRESS PERIOD   25   TIME STEP 1522

 -------------------------------------------------------------------------------
                             SWR1 OUTPUT PRINT TIMES
                        STRESS PERIOD   25   TIME STEP  1522
 --------------- --------------- --------------- --------------- ---------------
     0.26904E+06                                                                
 -------------------------------------------------------------------------------
 
 SOLVING FOR HEAD 
 INITIAL HNEW IS AN EXACT SOLUTION.

 NO OUTPUT CONTROL FOR STRESS PERIOD   25   TIME STEP 1523

 -------------------------------------------------------------------------------
                             SWR1 OUTPUT PRINT TIMES
                        STRESS PERIOD   25   TIME STEP  1523
 --------------- --------------- --------------- --------------- ---------------
     0.26916E+06                                                                
 -------------------------------------------------------------------------------
 
 SOLVING FOR HEAD 
 INITIAL HNEW IS AN EXACT SOLUTION.

 NO OUTPUT CONTROL FOR STRESS PERIOD   25   TIME STEP 1524

 -------------------------------------------------------------------------------
                             SWR1 OUTPUT PRINT TIMES
                        STRESS PERIOD   25   TIME STEP  1524
 --------------- --------------- --------------- --------------- ---------------
     0.26928E+06                                                                
 -------------------------------------------------------------------------------
 
 SOLVING FOR HEAD 
 INITIAL HNEW IS AN EXACT SOLUTION.

 NO OUTPUT CONTROL FOR STRESS PERIOD   25   TIME STEP 1525

 -------------------------------------------------------------------------------
                             SWR1 OUTPUT PRINT TIMES
                        STRESS PERIOD   25   TIME STEP  1525
 --------------- --------------- --------------- --------------- ---------------
     0.26940E+06                                                                
 -------------------------------------------------------------------------------
 
 SOLVING FOR HEAD 
 INITIAL HNEW IS AN EXACT SOLUTION.

 NO OUTPUT CONTROL FOR STRESS PERIOD   25   TIME STEP 1526

 -------------------------------------------------------------------------------
                             SWR1 OUTPUT PRINT TIMES
                        STRESS PERIOD   25   TIME STEP  1526
 --------------- --------------- --------------- --------------- ---------------
     0.26952E+06                                                                
 -------------------------------------------------------------------------------
 
 SOLVING FOR HEAD 
 INITIAL HNEW IS AN EXACT SOLUTION.

 NO OUTPUT CONTROL FOR STRESS PERIOD   25   TIME STEP 1527

 -------------------------------------------------------------------------------
                             SWR1 OUTPUT PRINT TIMES
                        STRESS PERIOD   25   TIME STEP  1527
 --------------- --------------- --------------- --------------- ---------------
     0.26964E+06                                                                
 -------------------------------------------------------------------------------
 
 SOLVING FOR HEAD 
 INITIAL HNEW IS AN EXACT SOLUTION.

 NO OUTPUT CONTROL FOR STRESS PERIOD   25   TIME STEP 1528

 -------------------------------------------------------------------------------
                             SWR1 OUTPUT PRINT TIMES
                        STRESS PERIOD   25   TIME STEP  1528
 --------------- --------------- --------------- --------------- ---------------
     0.26976E+06                                                                
 -------------------------------------------------------------------------------
 
 SOLVING FOR HEAD 
 INITIAL HNEW IS AN EXACT SOLUTION.

 NO OUTPUT CONTROL FOR STRESS PERIOD   25   TIME STEP 1529

 -------------------------------------------------------------------------------
                             SWR1 OUTPUT PRINT TIMES
                        STRESS PERIOD   25   TIME STEP  1529
 --------------- --------------- --------------- --------------- ---------------
     0.26988E+06                                                                
 -------------------------------------------------------------------------------
 
 SOLVING FOR HEAD 
 INITIAL HNEW IS AN EXACT SOLUTION.

 NO OUTPUT CONTROL FOR STRESS PERIOD   25   TIME STEP 1530

 -------------------------------------------------------------------------------
                             SWR1 OUTPUT PRINT TIMES
                        STRESS PERIOD   25   TIME STEP  1530
 --------------- --------------- --------------- --------------- ---------------
     0.27000E+06                                                                
 -------------------------------------------------------------------------------
 
 SOLVING FOR HEAD 
 INITIAL HNEW IS AN EXACT SOLUTION.

 NO OUTPUT CONTROL FOR STRESS PERIOD   25   TIME STEP 1531

 -------------------------------------------------------------------------------
                             SWR1 OUTPUT PRINT TIMES
                        STRESS PERIOD   25   TIME STEP  1531
 --------------- --------------- --------------- --------------- ---------------
     0.27012E+06                                                                
 -------------------------------------------------------------------------------
 
 SOLVING FOR HEAD 
 INITIAL HNEW IS AN EXACT SOLUTION.

 NO OUTPUT CONTROL FOR STRESS PERIOD   25   TIME STEP 1532

 -------------------------------------------------------------------------------
                             SWR1 OUTPUT PRINT TIMES
                        STRESS PERIOD   25   TIME STEP  1532
 --------------- --------------- --------------- --------------- ---------------
     0.27024E+06                                                                
 -------------------------------------------------------------------------------
 
 SOLVING FOR HEAD 
 INITIAL HNEW IS AN EXACT SOLUTION.

 NO OUTPUT CONTROL FOR STRESS PERIOD   25   TIME STEP 1533

 -------------------------------------------------------------------------------
                             SWR1 OUTPUT PRINT TIMES
                        STRESS PERIOD   25   TIME STEP  1533
 --------------- --------------- --------------- --------------- ---------------
     0.27036E+06                                                                
 -------------------------------------------------------------------------------
 
 SOLVING FOR HEAD 
 INITIAL HNEW IS AN EXACT SOLUTION.

 NO OUTPUT CONTROL FOR STRESS PERIOD   25   TIME STEP 1534

 -------------------------------------------------------------------------------
                             SWR1 OUTPUT PRINT TIMES
                        STRESS PERIOD   25   TIME STEP  1534
 --------------- --------------- --------------- --------------- ---------------
     0.27048E+06                                                                
 -------------------------------------------------------------------------------
 
 SOLVING FOR HEAD 
 INITIAL HNEW IS AN EXACT SOLUTION.

 NO OUTPUT CONTROL FOR STRESS PERIOD   25   TIME STEP 1535

 -------------------------------------------------------------------------------
                             SWR1 OUTPUT PRINT TIMES
                        STRESS PERIOD   25   TIME STEP  1535
 --------------- --------------- --------------- --------------- ---------------
     0.27060E+06                                                                
 -------------------------------------------------------------------------------
 
 SOLVING FOR HEAD 
 INITIAL HNEW IS AN EXACT SOLUTION.

 NO OUTPUT CONTROL FOR STRESS PERIOD   25   TIME STEP 1536

 -------------------------------------------------------------------------------
                             SWR1 OUTPUT PRINT TIMES
                        STRESS PERIOD   25   TIME STEP  1536
 --------------- --------------- --------------- --------------- ---------------
     0.27072E+06                                                                
 -------------------------------------------------------------------------------
 
 SOLVING FOR HEAD 
 INITIAL HNEW IS AN EXACT SOLUTION.

 NO OUTPUT CONTROL FOR STRESS PERIOD   25   TIME STEP 1537

 -------------------------------------------------------------------------------
                             SWR1 OUTPUT PRINT TIMES
                        STRESS PERIOD   25   TIME STEP  1537
 --------------- --------------- --------------- --------------- ---------------
     0.27084E+06                                                                
 -------------------------------------------------------------------------------
 
 SOLVING FOR HEAD 
 INITIAL HNEW IS AN EXACT SOLUTION.

 NO OUTPUT CONTROL FOR STRESS PERIOD   25   TIME STEP 1538

 -------------------------------------------------------------------------------
                             SWR1 OUTPUT PRINT TIMES
                        STRESS PERIOD   25   TIME STEP  1538
 --------------- --------------- --------------- --------------- ---------------
     0.27096E+06                                                                
 -------------------------------------------------------------------------------
 
 SOLVING FOR HEAD 
 INITIAL HNEW IS AN EXACT SOLUTION.

 NO OUTPUT CONTROL FOR STRESS PERIOD   25   TIME STEP 1539

 -------------------------------------------------------------------------------
                             SWR1 OUTPUT PRINT TIMES
                        STRESS PERIOD   25   TIME STEP  1539
 --------------- --------------- --------------- --------------- ---------------
     0.27108E+06                                                                
 -------------------------------------------------------------------------------
 
 SOLVING FOR HEAD 
 INITIAL HNEW IS AN EXACT SOLUTION.

 NO OUTPUT CONTROL FOR STRESS PERIOD   25   TIME STEP 1540

 -------------------------------------------------------------------------------
                             SWR1 OUTPUT PRINT TIMES
                        STRESS PERIOD   25   TIME STEP  1540
 --------------- --------------- --------------- --------------- ---------------
     0.27120E+06                                                                
 -------------------------------------------------------------------------------
 
 SOLVING FOR HEAD 
 INITIAL HNEW IS AN EXACT SOLUTION.

 NO OUTPUT CONTROL FOR STRESS PERIOD   25   TIME STEP 1541

 -------------------------------------------------------------------------------
                             SWR1 OUTPUT PRINT TIMES
                        STRESS PERIOD   25   TIME STEP  1541
 --------------- --------------- --------------- --------------- ---------------
     0.27132E+06                                                                
 -------------------------------------------------------------------------------
 
 SOLVING FOR HEAD 
 INITIAL HNEW IS AN EXACT SOLUTION.

 NO OUTPUT CONTROL FOR STRESS PERIOD   25   TIME STEP 1542

 -------------------------------------------------------------------------------
                             SWR1 OUTPUT PRINT TIMES
                        STRESS PERIOD   25   TIME STEP  1542
 --------------- --------------- --------------- --------------- ---------------
     0.27144E+06                                                                
 -------------------------------------------------------------------------------
 
 SOLVING FOR HEAD 
 INITIAL HNEW IS AN EXACT SOLUTION.

 NO OUTPUT CONTROL FOR STRESS PERIOD   25   TIME STEP 1543

 -------------------------------------------------------------------------------
                             SWR1 OUTPUT PRINT TIMES
                        STRESS PERIOD   25   TIME STEP  1543
 --------------- --------------- --------------- --------------- ---------------
     0.27156E+06                                                                
 -------------------------------------------------------------------------------
 
 SOLVING FOR HEAD 
 INITIAL HNEW IS AN EXACT SOLUTION.

 NO OUTPUT CONTROL FOR STRESS PERIOD   25   TIME STEP 1544

 -------------------------------------------------------------------------------
                             SWR1 OUTPUT PRINT TIMES
                        STRESS PERIOD   25   TIME STEP  1544
 --------------- --------------- --------------- --------------- ---------------
     0.27168E+06                                                                
 -------------------------------------------------------------------------------
 
 SOLVING FOR HEAD 
 INITIAL HNEW IS AN EXACT SOLUTION.

 NO OUTPUT CONTROL FOR STRESS PERIOD   25   TIME STEP 1545

 -------------------------------------------------------------------------------
                             SWR1 OUTPUT PRINT TIMES
                        STRESS PERIOD   25   TIME STEP  1545
 --------------- --------------- --------------- --------------- ---------------
     0.27180E+06                                                                
 -------------------------------------------------------------------------------
 
 SOLVING FOR HEAD 
 INITIAL HNEW IS AN EXACT SOLUTION.

 NO OUTPUT CONTROL FOR STRESS PERIOD   25   TIME STEP 1546

 -------------------------------------------------------------------------------
                             SWR1 OUTPUT PRINT TIMES
                        STRESS PERIOD   25   TIME STEP  1546
 --------------- --------------- --------------- --------------- ---------------
     0.27192E+06                                                                
 -------------------------------------------------------------------------------
 
 SOLVING FOR HEAD 
 INITIAL HNEW IS AN EXACT SOLUTION.

 NO OUTPUT CONTROL FOR STRESS PERIOD   25   TIME STEP 1547

 -------------------------------------------------------------------------------
                             SWR1 OUTPUT PRINT TIMES
                        STRESS PERIOD   25   TIME STEP  1547
 --------------- --------------- --------------- --------------- ---------------
     0.27204E+06                                                                
 -------------------------------------------------------------------------------
 
 SOLVING FOR HEAD 
 INITIAL HNEW IS AN EXACT SOLUTION.

 NO OUTPUT CONTROL FOR STRESS PERIOD   25   TIME STEP 1548

 -------------------------------------------------------------------------------
                             SWR1 OUTPUT PRINT TIMES
                        STRESS PERIOD   25   TIME STEP  1548
 --------------- --------------- --------------- --------------- ---------------
     0.27216E+06                                                                
 -------------------------------------------------------------------------------
 
 SOLVING FOR HEAD 
 INITIAL HNEW IS AN EXACT SOLUTION.

 NO OUTPUT CONTROL FOR STRESS PERIOD   25   TIME STEP 1549

 -------------------------------------------------------------------------------
                             SWR1 OUTPUT PRINT TIMES
                        STRESS PERIOD   25   TIME STEP  1549
 --------------- --------------- --------------- --------------- ---------------
     0.27228E+06                                                                
 -------------------------------------------------------------------------------
 
 SOLVING FOR HEAD 
 INITIAL HNEW IS AN EXACT SOLUTION.

 NO OUTPUT CONTROL FOR STRESS PERIOD   25   TIME STEP 1550

 -------------------------------------------------------------------------------
                             SWR1 OUTPUT PRINT TIMES
                        STRESS PERIOD   25   TIME STEP  1550
 --------------- --------------- --------------- --------------- ---------------
     0.27240E+06                                                                
 -------------------------------------------------------------------------------
 
 SOLVING FOR HEAD 
 INITIAL HNEW IS AN EXACT SOLUTION.

 NO OUTPUT CONTROL FOR STRESS PERIOD   25   TIME STEP 1551

 -------------------------------------------------------------------------------
                             SWR1 OUTPUT PRINT TIMES
                        STRESS PERIOD   25   TIME STEP  1551
 --------------- --------------- --------------- --------------- ---------------
     0.27252E+06                                                                
 -------------------------------------------------------------------------------
 
 SOLVING FOR HEAD 
 INITIAL HNEW IS AN EXACT SOLUTION.

 NO OUTPUT CONTROL FOR STRESS PERIOD   25   TIME STEP 1552

 -------------------------------------------------------------------------------
                             SWR1 OUTPUT PRINT TIMES
                        STRESS PERIOD   25   TIME STEP  1552
 --------------- --------------- --------------- --------------- ---------------
     0.27264E+06                                                                
 -------------------------------------------------------------------------------
 
 SOLVING FOR HEAD 
 INITIAL HNEW IS AN EXACT SOLUTION.

 NO OUTPUT CONTROL FOR STRESS PERIOD   25   TIME STEP 1553

 -------------------------------------------------------------------------------
                             SWR1 OUTPUT PRINT TIMES
                        STRESS PERIOD   25   TIME STEP  1553
 --------------- --------------- --------------- --------------- ---------------
     0.27276E+06                                                                
 -------------------------------------------------------------------------------
 
 SOLVING FOR HEAD 
 INITIAL HNEW IS AN EXACT SOLUTION.

 NO OUTPUT CONTROL FOR STRESS PERIOD   25   TIME STEP 1554

 -------------------------------------------------------------------------------
                             SWR1 OUTPUT PRINT TIMES
                        STRESS PERIOD   25   TIME STEP  1554
 --------------- --------------- --------------- --------------- ---------------
     0.27288E+06                                                                
 -------------------------------------------------------------------------------
 
 SOLVING FOR HEAD 
 INITIAL HNEW IS AN EXACT SOLUTION.

 NO OUTPUT CONTROL FOR STRESS PERIOD   25   TIME STEP 1555

 -------------------------------------------------------------------------------
                             SWR1 OUTPUT PRINT TIMES
                        STRESS PERIOD   25   TIME STEP  1555
 --------------- --------------- --------------- --------------- ---------------
     0.27300E+06                                                                
 -------------------------------------------------------------------------------
 
 SOLVING FOR HEAD 
 INITIAL HNEW IS AN EXACT SOLUTION.

 NO OUTPUT CONTROL FOR STRESS PERIOD   25   TIME STEP 1556

 -------------------------------------------------------------------------------
                             SWR1 OUTPUT PRINT TIMES
                        STRESS PERIOD   25   TIME STEP  1556
 --------------- --------------- --------------- --------------- ---------------
     0.27312E+06                                                                
 -------------------------------------------------------------------------------
 
 SOLVING FOR HEAD 
 INITIAL HNEW IS AN EXACT SOLUTION.

 NO OUTPUT CONTROL FOR STRESS PERIOD   25   TIME STEP 1557

 -------------------------------------------------------------------------------
                             SWR1 OUTPUT PRINT TIMES
                        STRESS PERIOD   25   TIME STEP  1557
 --------------- --------------- --------------- --------------- ---------------
     0.27324E+06                                                                
 -------------------------------------------------------------------------------
 
 SOLVING FOR HEAD 
 INITIAL HNEW IS AN EXACT SOLUTION.

 NO OUTPUT CONTROL FOR STRESS PERIOD   25   TIME STEP 1558

 -------------------------------------------------------------------------------
                             SWR1 OUTPUT PRINT TIMES
                        STRESS PERIOD   25   TIME STEP  1558
 --------------- --------------- --------------- --------------- ---------------
     0.27336E+06                                                                
 -------------------------------------------------------------------------------
 
 SOLVING FOR HEAD 
 INITIAL HNEW IS AN EXACT SOLUTION.

 NO OUTPUT CONTROL FOR STRESS PERIOD   25   TIME STEP 1559

 -------------------------------------------------------------------------------
                             SWR1 OUTPUT PRINT TIMES
                        STRESS PERIOD   25   TIME STEP  1559
 --------------- --------------- --------------- --------------- ---------------
     0.27348E+06                                                                
 -------------------------------------------------------------------------------
 
 SOLVING FOR HEAD 
 INITIAL HNEW IS AN EXACT SOLUTION.

 NO OUTPUT CONTROL FOR STRESS PERIOD   25   TIME STEP 1560

 -------------------------------------------------------------------------------
                             SWR1 OUTPUT PRINT TIMES
                        STRESS PERIOD   25   TIME STEP  1560
 --------------- --------------- --------------- --------------- ---------------
     0.27360E+06                                                                
 -------------------------------------------------------------------------------
 
 SOLVING FOR HEAD 
 INITIAL HNEW IS AN EXACT SOLUTION.

 NO OUTPUT CONTROL FOR STRESS PERIOD   25   TIME STEP 1561

 -------------------------------------------------------------------------------
                             SWR1 OUTPUT PRINT TIMES
                        STRESS PERIOD   25   TIME STEP  1561
 --------------- --------------- --------------- --------------- ---------------
     0.27372E+06                                                                
 -------------------------------------------------------------------------------
 
 SOLVING FOR HEAD 
 INITIAL HNEW IS AN EXACT SOLUTION.

 NO OUTPUT CONTROL FOR STRESS PERIOD   25   TIME STEP 1562

 -------------------------------------------------------------------------------
                             SWR1 OUTPUT PRINT TIMES
                        STRESS PERIOD   25   TIME STEP  1562
 --------------- --------------- --------------- --------------- ---------------
     0.27384E+06                                                                
 -------------------------------------------------------------------------------
 
 SOLVING FOR HEAD 
 INITIAL HNEW IS AN EXACT SOLUTION.

 NO OUTPUT CONTROL FOR STRESS PERIOD   25   TIME STEP 1563

 -------------------------------------------------------------------------------
                             SWR1 OUTPUT PRINT TIMES
                        STRESS PERIOD   25   TIME STEP  1563
 --------------- --------------- --------------- --------------- ---------------
     0.27396E+06                                                                
 -------------------------------------------------------------------------------
 
 SOLVING FOR HEAD 
 INITIAL HNEW IS AN EXACT SOLUTION.

 NO OUTPUT CONTROL FOR STRESS PERIOD   25   TIME STEP 1564

 -------------------------------------------------------------------------------
                             SWR1 OUTPUT PRINT TIMES
                        STRESS PERIOD   25   TIME STEP  1564
 --------------- --------------- --------------- --------------- ---------------
     0.27408E+06                                                                
 -------------------------------------------------------------------------------
 
 SOLVING FOR HEAD 
 INITIAL HNEW IS AN EXACT SOLUTION.

 NO OUTPUT CONTROL FOR STRESS PERIOD   25   TIME STEP 1565

 -------------------------------------------------------------------------------
                             SWR1 OUTPUT PRINT TIMES
                        STRESS PERIOD   25   TIME STEP  1565
 --------------- --------------- --------------- --------------- ---------------
     0.27420E+06                                                                
 -------------------------------------------------------------------------------
 
 SOLVING FOR HEAD 
 INITIAL HNEW IS AN EXACT SOLUTION.

 NO OUTPUT CONTROL FOR STRESS PERIOD   25   TIME STEP 1566

 -------------------------------------------------------------------------------
                             SWR1 OUTPUT PRINT TIMES
                        STRESS PERIOD   25   TIME STEP  1566
 --------------- --------------- --------------- --------------- ---------------
     0.27432E+06                                                                
 -------------------------------------------------------------------------------
 
 SOLVING FOR HEAD 
 INITIAL HNEW IS AN EXACT SOLUTION.

 NO OUTPUT CONTROL FOR STRESS PERIOD   25   TIME STEP 1567

 -------------------------------------------------------------------------------
                             SWR1 OUTPUT PRINT TIMES
                        STRESS PERIOD   25   TIME STEP  1567
 --------------- --------------- --------------- --------------- ---------------
     0.27444E+06                                                                
 -------------------------------------------------------------------------------
 
 SOLVING FOR HEAD 
 INITIAL HNEW IS AN EXACT SOLUTION.

 NO OUTPUT CONTROL FOR STRESS PERIOD   25   TIME STEP 1568

 -------------------------------------------------------------------------------
                             SWR1 OUTPUT PRINT TIMES
                        STRESS PERIOD   25   TIME STEP  1568
 --------------- --------------- --------------- --------------- ---------------
     0.27456E+06                                                                
 -------------------------------------------------------------------------------
 
 SOLVING FOR HEAD 
 INITIAL HNEW IS AN EXACT SOLUTION.

 NO OUTPUT CONTROL FOR STRESS PERIOD   25   TIME STEP 1569

 -------------------------------------------------------------------------------
                             SWR1 OUTPUT PRINT TIMES
                        STRESS PERIOD   25   TIME STEP  1569
 --------------- --------------- --------------- --------------- ---------------
     0.27468E+06                                                                
 -------------------------------------------------------------------------------
 
 SOLVING FOR HEAD 
 INITIAL HNEW IS AN EXACT SOLUTION.

 NO OUTPUT CONTROL FOR STRESS PERIOD   25   TIME STEP 1570

 -------------------------------------------------------------------------------
                             SWR1 OUTPUT PRINT TIMES
                        STRESS PERIOD   25   TIME STEP  1570
 --------------- --------------- --------------- --------------- ---------------
     0.27480E+06                                                                
 -------------------------------------------------------------------------------
 
 SOLVING FOR HEAD 
 INITIAL HNEW IS AN EXACT SOLUTION.

 NO OUTPUT CONTROL FOR STRESS PERIOD   25   TIME STEP 1571

 -------------------------------------------------------------------------------
                             SWR1 OUTPUT PRINT TIMES
                        STRESS PERIOD   25   TIME STEP  1571
 --------------- --------------- --------------- --------------- ---------------
     0.27492E+06                                                                
 -------------------------------------------------------------------------------
 
 SOLVING FOR HEAD 
 INITIAL HNEW IS AN EXACT SOLUTION.

 NO OUTPUT CONTROL FOR STRESS PERIOD   25   TIME STEP 1572

 -------------------------------------------------------------------------------
                             SWR1 OUTPUT PRINT TIMES
                        STRESS PERIOD   25   TIME STEP  1572
 --------------- --------------- --------------- --------------- ---------------
     0.27504E+06                                                                
 -------------------------------------------------------------------------------
 
 SOLVING FOR HEAD 
 INITIAL HNEW IS AN EXACT SOLUTION.

 NO OUTPUT CONTROL FOR STRESS PERIOD   25   TIME STEP 1573

 -------------------------------------------------------------------------------
                             SWR1 OUTPUT PRINT TIMES
                        STRESS PERIOD   25   TIME STEP  1573
 --------------- --------------- --------------- --------------- ---------------
     0.27516E+06                                                                
 -------------------------------------------------------------------------------
 
 SOLVING FOR HEAD 
 INITIAL HNEW IS AN EXACT SOLUTION.

 NO OUTPUT CONTROL FOR STRESS PERIOD   25   TIME STEP 1574

 -------------------------------------------------------------------------------
                             SWR1 OUTPUT PRINT TIMES
                        STRESS PERIOD   25   TIME STEP  1574
 --------------- --------------- --------------- --------------- ---------------
     0.27528E+06                                                                
 -------------------------------------------------------------------------------
 
 SOLVING FOR HEAD 
 INITIAL HNEW IS AN EXACT SOLUTION.

 NO OUTPUT CONTROL FOR STRESS PERIOD   25   TIME STEP 1575

 -------------------------------------------------------------------------------
                             SWR1 OUTPUT PRINT TIMES
                        STRESS PERIOD   25   TIME STEP  1575
 --------------- --------------- --------------- --------------- ---------------
     0.27540E+06                                                                
 -------------------------------------------------------------------------------
 
 SOLVING FOR HEAD 
 INITIAL HNEW IS AN EXACT SOLUTION.

 NO OUTPUT CONTROL FOR STRESS PERIOD   25   TIME STEP 1576

 -------------------------------------------------------------------------------
                             SWR1 OUTPUT PRINT TIMES
                        STRESS PERIOD   25   TIME STEP  1576
 --------------- --------------- --------------- --------------- ---------------
     0.27552E+06                                                                
 -------------------------------------------------------------------------------
 
 SOLVING FOR HEAD 
 INITIAL HNEW IS AN EXACT SOLUTION.

 NO OUTPUT CONTROL FOR STRESS PERIOD   25   TIME STEP 1577

 -------------------------------------------------------------------------------
                             SWR1 OUTPUT PRINT TIMES
                        STRESS PERIOD   25   TIME STEP  1577
 --------------- --------------- --------------- --------------- ---------------
     0.27564E+06                                                                
 -------------------------------------------------------------------------------
 
 SOLVING FOR HEAD 
 INITIAL HNEW IS AN EXACT SOLUTION.

 NO OUTPUT CONTROL FOR STRESS PERIOD   25   TIME STEP 1578

 -------------------------------------------------------------------------------
                             SWR1 OUTPUT PRINT TIMES
                        STRESS PERIOD   25   TIME STEP  1578
 --------------- --------------- --------------- --------------- ---------------
     0.27576E+06                                                                
 -------------------------------------------------------------------------------
 
 SOLVING FOR HEAD 
 INITIAL HNEW IS AN EXACT SOLUTION.

 NO OUTPUT CONTROL FOR STRESS PERIOD   25   TIME STEP 1579

 -------------------------------------------------------------------------------
                             SWR1 OUTPUT PRINT TIMES
                        STRESS PERIOD   25   TIME STEP  1579
 --------------- --------------- --------------- --------------- ---------------
     0.27588E+06                                                                
 -------------------------------------------------------------------------------
 
 SOLVING FOR HEAD 
 INITIAL HNEW IS AN EXACT SOLUTION.

 NO OUTPUT CONTROL FOR STRESS PERIOD   25   TIME STEP 1580

 -------------------------------------------------------------------------------
                             SWR1 OUTPUT PRINT TIMES
                        STRESS PERIOD   25   TIME STEP  1580
 --------------- --------------- --------------- --------------- ---------------
     0.27600E+06                                                                
 -------------------------------------------------------------------------------
 
 SOLVING FOR HEAD 
 INITIAL HNEW IS AN EXACT SOLUTION.

 NO OUTPUT CONTROL FOR STRESS PERIOD   25   TIME STEP 1581

 -------------------------------------------------------------------------------
                             SWR1 OUTPUT PRINT TIMES
                        STRESS PERIOD   25   TIME STEP  1581
 --------------- --------------- --------------- --------------- ---------------
     0.27612E+06                                                                
 -------------------------------------------------------------------------------
 
 SOLVING FOR HEAD 
 INITIAL HNEW IS AN EXACT SOLUTION.

 NO OUTPUT CONTROL FOR STRESS PERIOD   25   TIME STEP 1582

 -------------------------------------------------------------------------------
                             SWR1 OUTPUT PRINT TIMES
                        STRESS PERIOD   25   TIME STEP  1582
 --------------- --------------- --------------- --------------- ---------------
     0.27624E+06                                                                
 -------------------------------------------------------------------------------
 
 SOLVING FOR HEAD 
 INITIAL HNEW IS AN EXACT SOLUTION.

 NO OUTPUT CONTROL FOR STRESS PERIOD   25   TIME STEP 1583

 -------------------------------------------------------------------------------
                             SWR1 OUTPUT PRINT TIMES
                        STRESS PERIOD   25   TIME STEP  1583
 --------------- --------------- --------------- --------------- ---------------
     0.27636E+06                                                                
 -------------------------------------------------------------------------------
 
 SOLVING FOR HEAD 
 INITIAL HNEW IS AN EXACT SOLUTION.

 NO OUTPUT CONTROL FOR STRESS PERIOD   25   TIME STEP 1584

 -------------------------------------------------------------------------------
                             SWR1 OUTPUT PRINT TIMES
                        STRESS PERIOD   25   TIME STEP  1584
 --------------- --------------- --------------- --------------- ---------------
     0.27648E+06                                                                
 -------------------------------------------------------------------------------
 
 SOLVING FOR HEAD 
 INITIAL HNEW IS AN EXACT SOLUTION.

 NO OUTPUT CONTROL FOR STRESS PERIOD   25   TIME STEP 1585

 -------------------------------------------------------------------------------
                             SWR1 OUTPUT PRINT TIMES
                        STRESS PERIOD   25   TIME STEP  1585
 --------------- --------------- --------------- --------------- ---------------
     0.27660E+06                                                                
 -------------------------------------------------------------------------------
 
 SOLVING FOR HEAD 
 INITIAL HNEW IS AN EXACT SOLUTION.

 NO OUTPUT CONTROL FOR STRESS PERIOD   25   TIME STEP 1586

 -------------------------------------------------------------------------------
                             SWR1 OUTPUT PRINT TIMES
                        STRESS PERIOD   25   TIME STEP  1586
 --------------- --------------- --------------- --------------- ---------------
     0.27672E+06                                                                
 -------------------------------------------------------------------------------
 
 SOLVING FOR HEAD 
 INITIAL HNEW IS AN EXACT SOLUTION.

 NO OUTPUT CONTROL FOR STRESS PERIOD   25   TIME STEP 1587

 -------------------------------------------------------------------------------
                             SWR1 OUTPUT PRINT TIMES
                        STRESS PERIOD   25   TIME STEP  1587
 --------------- --------------- --------------- --------------- ---------------
     0.27684E+06                                                                
 -------------------------------------------------------------------------------
 
 SOLVING FOR HEAD 
 INITIAL HNEW IS AN EXACT SOLUTION.

 NO OUTPUT CONTROL FOR STRESS PERIOD   25   TIME STEP 1588

 -------------------------------------------------------------------------------
                             SWR1 OUTPUT PRINT TIMES
                        STRESS PERIOD   25   TIME STEP  1588
 --------------- --------------- --------------- --------------- ---------------
     0.27696E+06                                                                
 -------------------------------------------------------------------------------
 
 SOLVING FOR HEAD 
 INITIAL HNEW IS AN EXACT SOLUTION.

 NO OUTPUT CONTROL FOR STRESS PERIOD   25   TIME STEP 1589

 -------------------------------------------------------------------------------
                             SWR1 OUTPUT PRINT TIMES
                        STRESS PERIOD   25   TIME STEP  1589
 --------------- --------------- --------------- --------------- ---------------
     0.27708E+06                                                                
 -------------------------------------------------------------------------------
 
 SOLVING FOR HEAD 
 INITIAL HNEW IS AN EXACT SOLUTION.

 NO OUTPUT CONTROL FOR STRESS PERIOD   25   TIME STEP 1590

 -------------------------------------------------------------------------------
                             SWR1 OUTPUT PRINT TIMES
                        STRESS PERIOD   25   TIME STEP  1590
 --------------- --------------- --------------- --------------- ---------------
     0.27720E+06                                                                
 -------------------------------------------------------------------------------
 
 SOLVING FOR HEAD 
 INITIAL HNEW IS AN EXACT SOLUTION.

 NO OUTPUT CONTROL FOR STRESS PERIOD   25   TIME STEP 1591

 -------------------------------------------------------------------------------
                             SWR1 OUTPUT PRINT TIMES
                        STRESS PERIOD   25   TIME STEP  1591
 --------------- --------------- --------------- --------------- ---------------
     0.27732E+06                                                                
 -------------------------------------------------------------------------------
 
 SOLVING FOR HEAD 
 INITIAL HNEW IS AN EXACT SOLUTION.

 NO OUTPUT CONTROL FOR STRESS PERIOD   25   TIME STEP 1592

 -------------------------------------------------------------------------------
                             SWR1 OUTPUT PRINT TIMES
                        STRESS PERIOD   25   TIME STEP  1592
 --------------- --------------- --------------- --------------- ---------------
     0.27744E+06                                                                
 -------------------------------------------------------------------------------
 
 SOLVING FOR HEAD 
 INITIAL HNEW IS AN EXACT SOLUTION.

 NO OUTPUT CONTROL FOR STRESS PERIOD   25   TIME STEP 1593

 -------------------------------------------------------------------------------
                             SWR1 OUTPUT PRINT TIMES
                        STRESS PERIOD   25   TIME STEP  1593
 --------------- --------------- --------------- --------------- ---------------
     0.27756E+06                                                                
 -------------------------------------------------------------------------------
 
 SOLVING FOR HEAD 
 INITIAL HNEW IS AN EXACT SOLUTION.

 NO OUTPUT CONTROL FOR STRESS PERIOD   25   TIME STEP 1594

 -------------------------------------------------------------------------------
                             SWR1 OUTPUT PRINT TIMES
                        STRESS PERIOD   25   TIME STEP  1594
 --------------- --------------- --------------- --------------- ---------------
     0.27768E+06                                                                
 -------------------------------------------------------------------------------
 
 SOLVING FOR HEAD 
 INITIAL HNEW IS AN EXACT SOLUTION.

 NO OUTPUT CONTROL FOR STRESS PERIOD   25   TIME STEP 1595

 -------------------------------------------------------------------------------
                             SWR1 OUTPUT PRINT TIMES
                        STRESS PERIOD   25   TIME STEP  1595
 --------------- --------------- --------------- --------------- ---------------
     0.27780E+06                                                                
 -------------------------------------------------------------------------------
 
 SOLVING FOR HEAD 
 INITIAL HNEW IS AN EXACT SOLUTION.

 NO OUTPUT CONTROL FOR STRESS PERIOD   25   TIME STEP 1596

 -------------------------------------------------------------------------------
                             SWR1 OUTPUT PRINT TIMES
                        STRESS PERIOD   25   TIME STEP  1596
 --------------- --------------- --------------- --------------- ---------------
     0.27792E+06                                                                
 -------------------------------------------------------------------------------
 
 SOLVING FOR HEAD 
 INITIAL HNEW IS AN EXACT SOLUTION.

 NO OUTPUT CONTROL FOR STRESS PERIOD   25   TIME STEP 1597

 -------------------------------------------------------------------------------
                             SWR1 OUTPUT PRINT TIMES
                        STRESS PERIOD   25   TIME STEP  1597
 --------------- --------------- --------------- --------------- ---------------
     0.27804E+06                                                                
 -------------------------------------------------------------------------------
 
 SOLVING FOR HEAD 
 INITIAL HNEW IS AN EXACT SOLUTION.

 NO OUTPUT CONTROL FOR STRESS PERIOD   25   TIME STEP 1598

 -------------------------------------------------------------------------------
                             SWR1 OUTPUT PRINT TIMES
                        STRESS PERIOD   25   TIME STEP  1598
 --------------- --------------- --------------- --------------- ---------------
     0.27816E+06                                                                
 -------------------------------------------------------------------------------
 
 SOLVING FOR HEAD 
 INITIAL HNEW IS AN EXACT SOLUTION.

 NO OUTPUT CONTROL FOR STRESS PERIOD   25   TIME STEP 1599

 -------------------------------------------------------------------------------
                             SWR1 OUTPUT PRINT TIMES
                        STRESS PERIOD   25   TIME STEP  1599
 --------------- --------------- --------------- --------------- ---------------
     0.27828E+06                                                                
 -------------------------------------------------------------------------------
 
 SOLVING FOR HEAD 
 INITIAL HNEW IS AN EXACT SOLUTION.

 NO OUTPUT CONTROL FOR STRESS PERIOD   25   TIME STEP 1600

 -------------------------------------------------------------------------------
                             SWR1 OUTPUT PRINT TIMES
                        STRESS PERIOD   25   TIME STEP  1600
 --------------- --------------- --------------- --------------- ---------------
     0.27840E+06                                                                
 -------------------------------------------------------------------------------
 
 SOLVING FOR HEAD 
 INITIAL HNEW IS AN EXACT SOLUTION.

 NO OUTPUT CONTROL FOR STRESS PERIOD   25   TIME STEP 1601

 -------------------------------------------------------------------------------
                             SWR1 OUTPUT PRINT TIMES
                        STRESS PERIOD   25   TIME STEP  1601
 --------------- --------------- --------------- --------------- ---------------
     0.27852E+06                                                                
 -------------------------------------------------------------------------------
 
 SOLVING FOR HEAD 
 INITIAL HNEW IS AN EXACT SOLUTION.

 NO OUTPUT CONTROL FOR STRESS PERIOD   25   TIME STEP 1602

 -------------------------------------------------------------------------------
                             SWR1 OUTPUT PRINT TIMES
                        STRESS PERIOD   25   TIME STEP  1602
 --------------- --------------- --------------- --------------- ---------------
     0.27864E+06                                                                
 -------------------------------------------------------------------------------
 
 SOLVING FOR HEAD 
 INITIAL HNEW IS AN EXACT SOLUTION.

 NO OUTPUT CONTROL FOR STRESS PERIOD   25   TIME STEP 1603

 -------------------------------------------------------------------------------
                             SWR1 OUTPUT PRINT TIMES
                        STRESS PERIOD   25   TIME STEP  1603
 --------------- --------------- --------------- --------------- ---------------
     0.27876E+06                                                                
 -------------------------------------------------------------------------------
 
 SOLVING FOR HEAD 
 INITIAL HNEW IS AN EXACT SOLUTION.

 NO OUTPUT CONTROL FOR STRESS PERIOD   25   TIME STEP 1604

 -------------------------------------------------------------------------------
                             SWR1 OUTPUT PRINT TIMES
                        STRESS PERIOD   25   TIME STEP  1604
 --------------- --------------- --------------- --------------- ---------------
     0.27888E+06                                                                
 -------------------------------------------------------------------------------
 
 SOLVING FOR HEAD 
 INITIAL HNEW IS AN EXACT SOLUTION.

 NO OUTPUT CONTROL FOR STRESS PERIOD   25   TIME STEP 1605

 -------------------------------------------------------------------------------
                             SWR1 OUTPUT PRINT TIMES
                        STRESS PERIOD   25   TIME STEP  1605
 --------------- --------------- --------------- --------------- ---------------
     0.27900E+06                                                                
 -------------------------------------------------------------------------------
 
 SOLVING FOR HEAD 
 INITIAL HNEW IS AN EXACT SOLUTION.

 NO OUTPUT CONTROL FOR STRESS PERIOD   25   TIME STEP 1606

 -------------------------------------------------------------------------------
                             SWR1 OUTPUT PRINT TIMES
                        STRESS PERIOD   25   TIME STEP  1606
 --------------- --------------- --------------- --------------- ---------------
     0.27912E+06                                                                
 -------------------------------------------------------------------------------
 
 SOLVING FOR HEAD 
 INITIAL HNEW IS AN EXACT SOLUTION.

 NO OUTPUT CONTROL FOR STRESS PERIOD   25   TIME STEP 1607

 -------------------------------------------------------------------------------
                             SWR1 OUTPUT PRINT TIMES
                        STRESS PERIOD   25   TIME STEP  1607
 --------------- --------------- --------------- --------------- ---------------
     0.27924E+06                                                                
 -------------------------------------------------------------------------------
 
 SOLVING FOR HEAD 
 INITIAL HNEW IS AN EXACT SOLUTION.

 NO OUTPUT CONTROL FOR STRESS PERIOD   25   TIME STEP 1608

 -------------------------------------------------------------------------------
                             SWR1 OUTPUT PRINT TIMES
                        STRESS PERIOD   25   TIME STEP  1608
 --------------- --------------- --------------- --------------- ---------------
     0.27936E+06                                                                
 -------------------------------------------------------------------------------
 
 SOLVING FOR HEAD 
 INITIAL HNEW IS AN EXACT SOLUTION.

 NO OUTPUT CONTROL FOR STRESS PERIOD   25   TIME STEP 1609

 -------------------------------------------------------------------------------
                             SWR1 OUTPUT PRINT TIMES
                        STRESS PERIOD   25   TIME STEP  1609
 --------------- --------------- --------------- --------------- ---------------
     0.27948E+06                                                                
 -------------------------------------------------------------------------------
 
 SOLVING FOR HEAD 
 INITIAL HNEW IS AN EXACT SOLUTION.

 NO OUTPUT CONTROL FOR STRESS PERIOD   25   TIME STEP 1610

 -------------------------------------------------------------------------------
                             SWR1 OUTPUT PRINT TIMES
                        STRESS PERIOD   25   TIME STEP  1610
 --------------- --------------- --------------- --------------- ---------------
     0.27960E+06                                                                
 -------------------------------------------------------------------------------
 
 SOLVING FOR HEAD 
 INITIAL HNEW IS AN EXACT SOLUTION.

 NO OUTPUT CONTROL FOR STRESS PERIOD   25   TIME STEP 1611

 -------------------------------------------------------------------------------
                             SWR1 OUTPUT PRINT TIMES
                        STRESS PERIOD   25   TIME STEP  1611
 --------------- --------------- --------------- --------------- ---------------
     0.27972E+06                                                                
 -------------------------------------------------------------------------------
 
 SOLVING FOR HEAD 
 INITIAL HNEW IS AN EXACT SOLUTION.

 NO OUTPUT CONTROL FOR STRESS PERIOD   25   TIME STEP 1612

 -------------------------------------------------------------------------------
                             SWR1 OUTPUT PRINT TIMES
                        STRESS PERIOD   25   TIME STEP  1612
 --------------- --------------- --------------- --------------- ---------------
     0.27984E+06                                                                
 -------------------------------------------------------------------------------
 
 SOLVING FOR HEAD 
 INITIAL HNEW IS AN EXACT SOLUTION.

 NO OUTPUT CONTROL FOR STRESS PERIOD   25   TIME STEP 1613

 -------------------------------------------------------------------------------
                             SWR1 OUTPUT PRINT TIMES
                        STRESS PERIOD   25   TIME STEP  1613
 --------------- --------------- --------------- --------------- ---------------
     0.27996E+06                                                                
 -------------------------------------------------------------------------------
 
 SOLVING FOR HEAD 
 INITIAL HNEW IS AN EXACT SOLUTION.

 NO OUTPUT CONTROL FOR STRESS PERIOD   25   TIME STEP 1614

 -------------------------------------------------------------------------------
                             SWR1 OUTPUT PRINT TIMES
                        STRESS PERIOD   25   TIME STEP  1614
 --------------- --------------- --------------- --------------- ---------------
     0.28008E+06                                                                
 -------------------------------------------------------------------------------
 
 SOLVING FOR HEAD 
 INITIAL HNEW IS AN EXACT SOLUTION.

 NO OUTPUT CONTROL FOR STRESS PERIOD   25   TIME STEP 1615

 -------------------------------------------------------------------------------
                             SWR1 OUTPUT PRINT TIMES
                        STRESS PERIOD   25   TIME STEP  1615
 --------------- --------------- --------------- --------------- ---------------
     0.28020E+06                                                                
 -------------------------------------------------------------------------------
 
 SOLVING FOR HEAD 
 INITIAL HNEW IS AN EXACT SOLUTION.

 NO OUTPUT CONTROL FOR STRESS PERIOD   25   TIME STEP 1616

 -------------------------------------------------------------------------------
                             SWR1 OUTPUT PRINT TIMES
                        STRESS PERIOD   25   TIME STEP  1616
 --------------- --------------- --------------- --------------- ---------------
     0.28032E+06                                                                
 -------------------------------------------------------------------------------
 
 SOLVING FOR HEAD 
 INITIAL HNEW IS AN EXACT SOLUTION.

 NO OUTPUT CONTROL FOR STRESS PERIOD   25   TIME STEP 1617

 -------------------------------------------------------------------------------
                             SWR1 OUTPUT PRINT TIMES
                        STRESS PERIOD   25   TIME STEP  1617
 --------------- --------------- --------------- --------------- ---------------
     0.28044E+06                                                                
 -------------------------------------------------------------------------------
 
 SOLVING FOR HEAD 
 INITIAL HNEW IS AN EXACT SOLUTION.

 NO OUTPUT CONTROL FOR STRESS PERIOD   25   TIME STEP 1618

 -------------------------------------------------------------------------------
                             SWR1 OUTPUT PRINT TIMES
                        STRESS PERIOD   25   TIME STEP  1618
 --------------- --------------- --------------- --------------- ---------------
     0.28056E+06                                                                
 -------------------------------------------------------------------------------
 
 SOLVING FOR HEAD 
 INITIAL HNEW IS AN EXACT SOLUTION.

 NO OUTPUT CONTROL FOR STRESS PERIOD   25   TIME STEP 1619

 -------------------------------------------------------------------------------
                             SWR1 OUTPUT PRINT TIMES
                        STRESS PERIOD   25   TIME STEP  1619
 --------------- --------------- --------------- --------------- ---------------
     0.28068E+06                                                                
 -------------------------------------------------------------------------------
 
 SOLVING FOR HEAD 
 INITIAL HNEW IS AN EXACT SOLUTION.

 NO OUTPUT CONTROL FOR STRESS PERIOD   25   TIME STEP 1620

 -------------------------------------------------------------------------------
                             SWR1 OUTPUT PRINT TIMES
                        STRESS PERIOD   25   TIME STEP  1620
 --------------- --------------- --------------- --------------- ---------------
     0.28080E+06                                                                
 -------------------------------------------------------------------------------
 
 SOLVING FOR HEAD 
 INITIAL HNEW IS AN EXACT SOLUTION.

 NO OUTPUT CONTROL FOR STRESS PERIOD   25   TIME STEP 1621

 -------------------------------------------------------------------------------
                             SWR1 OUTPUT PRINT TIMES
                        STRESS PERIOD   25   TIME STEP  1621
 --------------- --------------- --------------- --------------- ---------------
     0.28092E+06                                                                
 -------------------------------------------------------------------------------
 
 SOLVING FOR HEAD 
 INITIAL HNEW IS AN EXACT SOLUTION.

 NO OUTPUT CONTROL FOR STRESS PERIOD   25   TIME STEP 1622

 -------------------------------------------------------------------------------
                             SWR1 OUTPUT PRINT TIMES
                        STRESS PERIOD   25   TIME STEP  1622
 --------------- --------------- --------------- --------------- ---------------
     0.28104E+06                                                                
 -------------------------------------------------------------------------------
 
 SOLVING FOR HEAD 
 INITIAL HNEW IS AN EXACT SOLUTION.

 NO OUTPUT CONTROL FOR STRESS PERIOD   25   TIME STEP 1623

 -------------------------------------------------------------------------------
                             SWR1 OUTPUT PRINT TIMES
                        STRESS PERIOD   25   TIME STEP  1623
 --------------- --------------- --------------- --------------- ---------------
     0.28116E+06                                                                
 -------------------------------------------------------------------------------
 
 SOLVING FOR HEAD 
 INITIAL HNEW IS AN EXACT SOLUTION.

 NO OUTPUT CONTROL FOR STRESS PERIOD   25   TIME STEP 1624

 -------------------------------------------------------------------------------
                             SWR1 OUTPUT PRINT TIMES
                        STRESS PERIOD   25   TIME STEP  1624
 --------------- --------------- --------------- --------------- ---------------
     0.28128E+06                                                                
 -------------------------------------------------------------------------------
 
 SOLVING FOR HEAD 
 INITIAL HNEW IS AN EXACT SOLUTION.

 NO OUTPUT CONTROL FOR STRESS PERIOD   25   TIME STEP 1625

 -------------------------------------------------------------------------------
                             SWR1 OUTPUT PRINT TIMES
                        STRESS PERIOD   25   TIME STEP  1625
 --------------- --------------- --------------- --------------- ---------------
     0.28140E+06                                                                
 -------------------------------------------------------------------------------
 
 SOLVING FOR HEAD 
 INITIAL HNEW IS AN EXACT SOLUTION.

 NO OUTPUT CONTROL FOR STRESS PERIOD   25   TIME STEP 1626

 -------------------------------------------------------------------------------
                             SWR1 OUTPUT PRINT TIMES
                        STRESS PERIOD   25   TIME STEP  1626
 --------------- --------------- --------------- --------------- ---------------
     0.28152E+06                                                                
 -------------------------------------------------------------------------------
 
 SOLVING FOR HEAD 
 INITIAL HNEW IS AN EXACT SOLUTION.

 NO OUTPUT CONTROL FOR STRESS PERIOD   25   TIME STEP 1627

 -------------------------------------------------------------------------------
                             SWR1 OUTPUT PRINT TIMES
                        STRESS PERIOD   25   TIME STEP  1627
 --------------- --------------- --------------- --------------- ---------------
     0.28164E+06                                                                
 -------------------------------------------------------------------------------
 
 SOLVING FOR HEAD 
 INITIAL HNEW IS AN EXACT SOLUTION.

 NO OUTPUT CONTROL FOR STRESS PERIOD   25   TIME STEP 1628

 -------------------------------------------------------------------------------
                             SWR1 OUTPUT PRINT TIMES
                        STRESS PERIOD   25   TIME STEP  1628
 --------------- --------------- --------------- --------------- ---------------
     0.28176E+06                                                                
 -------------------------------------------------------------------------------
 
 SOLVING FOR HEAD 
 INITIAL HNEW IS AN EXACT SOLUTION.

 NO OUTPUT CONTROL FOR STRESS PERIOD   25   TIME STEP 1629

 -------------------------------------------------------------------------------
                             SWR1 OUTPUT PRINT TIMES
                        STRESS PERIOD   25   TIME STEP  1629
 --------------- --------------- --------------- --------------- ---------------
     0.28188E+06                                                                
 -------------------------------------------------------------------------------
 
 SOLVING FOR HEAD 
 INITIAL HNEW IS AN EXACT SOLUTION.

 NO OUTPUT CONTROL FOR STRESS PERIOD   25   TIME STEP 1630

 -------------------------------------------------------------------------------
                             SWR1 OUTPUT PRINT TIMES
                        STRESS PERIOD   25   TIME STEP  1630
 --------------- --------------- --------------- --------------- ---------------
     0.28200E+06                                                                
 -------------------------------------------------------------------------------
 
 SOLVING FOR HEAD 
 INITIAL HNEW IS AN EXACT SOLUTION.

 NO OUTPUT CONTROL FOR STRESS PERIOD   25   TIME STEP 1631

 -------------------------------------------------------------------------------
                             SWR1 OUTPUT PRINT TIMES
                        STRESS PERIOD   25   TIME STEP  1631
 --------------- --------------- --------------- --------------- ---------------
     0.28212E+06                                                                
 -------------------------------------------------------------------------------
 
 SOLVING FOR HEAD 
 INITIAL HNEW IS AN EXACT SOLUTION.

 NO OUTPUT CONTROL FOR STRESS PERIOD   25   TIME STEP 1632

 -------------------------------------------------------------------------------
                             SWR1 OUTPUT PRINT TIMES
                        STRESS PERIOD   25   TIME STEP  1632
 --------------- --------------- --------------- --------------- ---------------
     0.28224E+06                                                                
 -------------------------------------------------------------------------------
 
 SOLVING FOR HEAD 
 INITIAL HNEW IS AN EXACT SOLUTION.

 NO OUTPUT CONTROL FOR STRESS PERIOD   25   TIME STEP 1633

 -------------------------------------------------------------------------------
                             SWR1 OUTPUT PRINT TIMES
                        STRESS PERIOD   25   TIME STEP  1633
 --------------- --------------- --------------- --------------- ---------------
     0.28236E+06                                                                
 -------------------------------------------------------------------------------
 
 SOLVING FOR HEAD 
 INITIAL HNEW IS AN EXACT SOLUTION.

 NO OUTPUT CONTROL FOR STRESS PERIOD   25   TIME STEP 1634

 -------------------------------------------------------------------------------
                             SWR1 OUTPUT PRINT TIMES
                        STRESS PERIOD   25   TIME STEP  1634
 --------------- --------------- --------------- --------------- ---------------
     0.28248E+06                                                                
 -------------------------------------------------------------------------------
 
 SOLVING FOR HEAD 
 INITIAL HNEW IS AN EXACT SOLUTION.

 NO OUTPUT CONTROL FOR STRESS PERIOD   25   TIME STEP 1635

 -------------------------------------------------------------------------------
                             SWR1 OUTPUT PRINT TIMES
                        STRESS PERIOD   25   TIME STEP  1635
 --------------- --------------- --------------- --------------- ---------------
     0.28260E+06                                                                
 -------------------------------------------------------------------------------
 
 SOLVING FOR HEAD 
 INITIAL HNEW IS AN EXACT SOLUTION.

 NO OUTPUT CONTROL FOR STRESS PERIOD   25   TIME STEP 1636

 -------------------------------------------------------------------------------
                             SWR1 OUTPUT PRINT TIMES
                        STRESS PERIOD   25   TIME STEP  1636
 --------------- --------------- --------------- --------------- ---------------
     0.28272E+06                                                                
 -------------------------------------------------------------------------------
 
 SOLVING FOR HEAD 
 INITIAL HNEW IS AN EXACT SOLUTION.

 NO OUTPUT CONTROL FOR STRESS PERIOD   25   TIME STEP 1637

 -------------------------------------------------------------------------------
                             SWR1 OUTPUT PRINT TIMES
                        STRESS PERIOD   25   TIME STEP  1637
 --------------- --------------- --------------- --------------- ---------------
     0.28284E+06                                                                
 -------------------------------------------------------------------------------
 
 SOLVING FOR HEAD 
 INITIAL HNEW IS AN EXACT SOLUTION.

 NO OUTPUT CONTROL FOR STRESS PERIOD   25   TIME STEP 1638

 -------------------------------------------------------------------------------
                             SWR1 OUTPUT PRINT TIMES
                        STRESS PERIOD   25   TIME STEP  1638
 --------------- --------------- --------------- --------------- ---------------
     0.28296E+06                                                                
 -------------------------------------------------------------------------------
 
 SOLVING FOR HEAD 
 INITIAL HNEW IS AN EXACT SOLUTION.

 NO OUTPUT CONTROL FOR STRESS PERIOD   25   TIME STEP 1639

 -------------------------------------------------------------------------------
                             SWR1 OUTPUT PRINT TIMES
                        STRESS PERIOD   25   TIME STEP  1639
 --------------- --------------- --------------- --------------- ---------------
     0.28308E+06                                                                
 -------------------------------------------------------------------------------
 
 SOLVING FOR HEAD 
 INITIAL HNEW IS AN EXACT SOLUTION.

 NO OUTPUT CONTROL FOR STRESS PERIOD   25   TIME STEP 1640

 -------------------------------------------------------------------------------
                             SWR1 OUTPUT PRINT TIMES
                        STRESS PERIOD   25   TIME STEP  1640
 --------------- --------------- --------------- --------------- ---------------
     0.28320E+06                                                                
 -------------------------------------------------------------------------------
 
 SOLVING FOR HEAD 
 INITIAL HNEW IS AN EXACT SOLUTION.

 NO OUTPUT CONTROL FOR STRESS PERIOD   25   TIME STEP 1641

 -------------------------------------------------------------------------------
                             SWR1 OUTPUT PRINT TIMES
                        STRESS PERIOD   25   TIME STEP  1641
 --------------- --------------- --------------- --------------- ---------------
     0.28332E+06                                                                
 -------------------------------------------------------------------------------
 
 SOLVING FOR HEAD 
 INITIAL HNEW IS AN EXACT SOLUTION.

 NO OUTPUT CONTROL FOR STRESS PERIOD   25   TIME STEP 1642

 -------------------------------------------------------------------------------
                             SWR1 OUTPUT PRINT TIMES
                        STRESS PERIOD   25   TIME STEP  1642
 --------------- --------------- --------------- --------------- ---------------
     0.28344E+06                                                                
 -------------------------------------------------------------------------------
 
 SOLVING FOR HEAD 
 INITIAL HNEW IS AN EXACT SOLUTION.

 NO OUTPUT CONTROL FOR STRESS PERIOD   25   TIME STEP 1643

 -------------------------------------------------------------------------------
                             SWR1 OUTPUT PRINT TIMES
                        STRESS PERIOD   25   TIME STEP  1643
 --------------- --------------- --------------- --------------- ---------------
     0.28356E+06                                                                
 -------------------------------------------------------------------------------
 
 SOLVING FOR HEAD 
 INITIAL HNEW IS AN EXACT SOLUTION.

 NO OUTPUT CONTROL FOR STRESS PERIOD   25   TIME STEP 1644

 -------------------------------------------------------------------------------
                             SWR1 OUTPUT PRINT TIMES
                        STRESS PERIOD   25   TIME STEP  1644
 --------------- --------------- --------------- --------------- ---------------
     0.28368E+06                                                                
 -------------------------------------------------------------------------------
 
 SOLVING FOR HEAD 
 INITIAL HNEW IS AN EXACT SOLUTION.

 NO OUTPUT CONTROL FOR STRESS PERIOD   25   TIME STEP 1645

 -------------------------------------------------------------------------------
                             SWR1 OUTPUT PRINT TIMES
                        STRESS PERIOD   25   TIME STEP  1645
 --------------- --------------- --------------- --------------- ---------------
     0.28380E+06                                                                
 -------------------------------------------------------------------------------
 
 SOLVING FOR HEAD 
 INITIAL HNEW IS AN EXACT SOLUTION.

 NO OUTPUT CONTROL FOR STRESS PERIOD   25   TIME STEP 1646

 -------------------------------------------------------------------------------
                             SWR1 OUTPUT PRINT TIMES
                        STRESS PERIOD   25   TIME STEP  1646
 --------------- --------------- --------------- --------------- ---------------
     0.28392E+06                                                                
 -------------------------------------------------------------------------------
 
 SOLVING FOR HEAD 
 INITIAL HNEW IS AN EXACT SOLUTION.

 NO OUTPUT CONTROL FOR STRESS PERIOD   25   TIME STEP 1647

 -------------------------------------------------------------------------------
                             SWR1 OUTPUT PRINT TIMES
                        STRESS PERIOD   25   TIME STEP  1647
 --------------- --------------- --------------- --------------- ---------------
     0.28404E+06                                                                
 -------------------------------------------------------------------------------
 
 SOLVING FOR HEAD 
 INITIAL HNEW IS AN EXACT SOLUTION.

 NO OUTPUT CONTROL FOR STRESS PERIOD   25   TIME STEP 1648

 -------------------------------------------------------------------------------
                             SWR1 OUTPUT PRINT TIMES
                        STRESS PERIOD   25   TIME STEP  1648
 --------------- --------------- --------------- --------------- ---------------
     0.28416E+06                                                                
 -------------------------------------------------------------------------------
 
 SOLVING FOR HEAD 
 INITIAL HNEW IS AN EXACT SOLUTION.

 NO OUTPUT CONTROL FOR STRESS PERIOD   25   TIME STEP 1649

 -------------------------------------------------------------------------------
                             SWR1 OUTPUT PRINT TIMES
                        STRESS PERIOD   25   TIME STEP  1649
 --------------- --------------- --------------- --------------- ---------------
     0.28428E+06                                                                
 -------------------------------------------------------------------------------
 
 SOLVING FOR HEAD 
 INITIAL HNEW IS AN EXACT SOLUTION.

 NO OUTPUT CONTROL FOR STRESS PERIOD   25   TIME STEP 1650

 -------------------------------------------------------------------------------
                             SWR1 OUTPUT PRINT TIMES
                        STRESS PERIOD   25   TIME STEP  1650
 --------------- --------------- --------------- --------------- ---------------
     0.28440E+06                                                                
 -------------------------------------------------------------------------------
 
 SOLVING FOR HEAD 
 INITIAL HNEW IS AN EXACT SOLUTION.

 NO OUTPUT CONTROL FOR STRESS PERIOD   25   TIME STEP 1651

 -------------------------------------------------------------------------------
                             SWR1 OUTPUT PRINT TIMES
                        STRESS PERIOD   25   TIME STEP  1651
 --------------- --------------- --------------- --------------- ---------------
     0.28452E+06                                                                
 -------------------------------------------------------------------------------
 
 SOLVING FOR HEAD 
 INITIAL HNEW IS AN EXACT SOLUTION.

 NO OUTPUT CONTROL FOR STRESS PERIOD   25   TIME STEP 1652

 -------------------------------------------------------------------------------
                             SWR1 OUTPUT PRINT TIMES
                        STRESS PERIOD   25   TIME STEP  1652
 --------------- --------------- --------------- --------------- ---------------
     0.28464E+06                                                                
 -------------------------------------------------------------------------------
 
 SOLVING FOR HEAD 
 INITIAL HNEW IS AN EXACT SOLUTION.

 NO OUTPUT CONTROL FOR STRESS PERIOD   25   TIME STEP 1653

 -------------------------------------------------------------------------------
                             SWR1 OUTPUT PRINT TIMES
                        STRESS PERIOD   25   TIME STEP  1653
 --------------- --------------- --------------- --------------- ---------------
     0.28476E+06                                                                
 -------------------------------------------------------------------------------
 
 SOLVING FOR HEAD 
 INITIAL HNEW IS AN EXACT SOLUTION.

 NO OUTPUT CONTROL FOR STRESS PERIOD   25   TIME STEP 1654

 -------------------------------------------------------------------------------
                             SWR1 OUTPUT PRINT TIMES
                        STRESS PERIOD   25   TIME STEP  1654
 --------------- --------------- --------------- --------------- ---------------
     0.28488E+06                                                                
 -------------------------------------------------------------------------------
 
 SOLVING FOR HEAD 
 INITIAL HNEW IS AN EXACT SOLUTION.

 NO OUTPUT CONTROL FOR STRESS PERIOD   25   TIME STEP 1655

 -------------------------------------------------------------------------------
                             SWR1 OUTPUT PRINT TIMES
                        STRESS PERIOD   25   TIME STEP  1655
 --------------- --------------- --------------- --------------- ---------------
     0.28500E+06                                                                
 -------------------------------------------------------------------------------
 
 SOLVING FOR HEAD 
 INITIAL HNEW IS AN EXACT SOLUTION.

 NO OUTPUT CONTROL FOR STRESS PERIOD   25   TIME STEP 1656

 -------------------------------------------------------------------------------
                             SWR1 OUTPUT PRINT TIMES
                        STRESS PERIOD   25   TIME STEP  1656
 --------------- --------------- --------------- --------------- ---------------
     0.28512E+06                                                                
 -------------------------------------------------------------------------------
 
 SOLVING FOR HEAD 
 INITIAL HNEW IS AN EXACT SOLUTION.

 NO OUTPUT CONTROL FOR STRESS PERIOD   25   TIME STEP 1657

 -------------------------------------------------------------------------------
                             SWR1 OUTPUT PRINT TIMES
                        STRESS PERIOD   25   TIME STEP  1657
 --------------- --------------- --------------- --------------- ---------------
     0.28524E+06                                                                
 -------------------------------------------------------------------------------
 
 SOLVING FOR HEAD 
 INITIAL HNEW IS AN EXACT SOLUTION.

 NO OUTPUT CONTROL FOR STRESS PERIOD   25   TIME STEP 1658

 -------------------------------------------------------------------------------
                             SWR1 OUTPUT PRINT TIMES
                        STRESS PERIOD   25   TIME STEP  1658
 --------------- --------------- --------------- --------------- ---------------
     0.28536E+06                                                                
 -------------------------------------------------------------------------------
 
 SOLVING FOR HEAD 
 INITIAL HNEW IS AN EXACT SOLUTION.

 NO OUTPUT CONTROL FOR STRESS PERIOD   25   TIME STEP 1659

 -------------------------------------------------------------------------------
                             SWR1 OUTPUT PRINT TIMES
                        STRESS PERIOD   25   TIME STEP  1659
 --------------- --------------- --------------- --------------- ---------------
     0.28548E+06                                                                
 -------------------------------------------------------------------------------
 
 SOLVING FOR HEAD 
 INITIAL HNEW IS AN EXACT SOLUTION.

 NO OUTPUT CONTROL FOR STRESS PERIOD   25   TIME STEP 1660

 -------------------------------------------------------------------------------
                             SWR1 OUTPUT PRINT TIMES
                        STRESS PERIOD   25   TIME STEP  1660
 --------------- --------------- --------------- --------------- ---------------
     0.28560E+06                                                                
 -------------------------------------------------------------------------------
 
 SOLVING FOR HEAD 
 INITIAL HNEW IS AN EXACT SOLUTION.

 NO OUTPUT CONTROL FOR STRESS PERIOD   25   TIME STEP 1661

 -------------------------------------------------------------------------------
                             SWR1 OUTPUT PRINT TIMES
                        STRESS PERIOD   25   TIME STEP  1661
 --------------- --------------- --------------- --------------- ---------------
     0.28572E+06                                                                
 -------------------------------------------------------------------------------
 
 SOLVING FOR HEAD 
 INITIAL HNEW IS AN EXACT SOLUTION.

 NO OUTPUT CONTROL FOR STRESS PERIOD   25   TIME STEP 1662

 -------------------------------------------------------------------------------
                             SWR1 OUTPUT PRINT TIMES
                        STRESS PERIOD   25   TIME STEP  1662
 --------------- --------------- --------------- --------------- ---------------
     0.28584E+06                                                                
 -------------------------------------------------------------------------------
 
 SOLVING FOR HEAD 
 INITIAL HNEW IS AN EXACT SOLUTION.

 NO OUTPUT CONTROL FOR STRESS PERIOD   25   TIME STEP 1663

 -------------------------------------------------------------------------------
                             SWR1 OUTPUT PRINT TIMES
                        STRESS PERIOD   25   TIME STEP  1663
 --------------- --------------- --------------- --------------- ---------------
     0.28596E+06                                                                
 -------------------------------------------------------------------------------
 
 SOLVING FOR HEAD 
 INITIAL HNEW IS AN EXACT SOLUTION.

 NO OUTPUT CONTROL FOR STRESS PERIOD   25   TIME STEP 1664

 -------------------------------------------------------------------------------
                             SWR1 OUTPUT PRINT TIMES
                        STRESS PERIOD   25   TIME STEP  1664
 --------------- --------------- --------------- --------------- ---------------
     0.28608E+06                                                                
 -------------------------------------------------------------------------------
 
 SOLVING FOR HEAD 
 INITIAL HNEW IS AN EXACT SOLUTION.

 NO OUTPUT CONTROL FOR STRESS PERIOD   25   TIME STEP 1665

 -------------------------------------------------------------------------------
                             SWR1 OUTPUT PRINT TIMES
                        STRESS PERIOD   25   TIME STEP  1665
 --------------- --------------- --------------- --------------- ---------------
     0.28620E+06                                                                
 -------------------------------------------------------------------------------
 
 SOLVING FOR HEAD 
 INITIAL HNEW IS AN EXACT SOLUTION.

 NO OUTPUT CONTROL FOR STRESS PERIOD   25   TIME STEP 1666

 -------------------------------------------------------------------------------
                             SWR1 OUTPUT PRINT TIMES
                        STRESS PERIOD   25   TIME STEP  1666
 --------------- --------------- --------------- --------------- ---------------
     0.28632E+06                                                                
 -------------------------------------------------------------------------------
 
 SOLVING FOR HEAD 
 INITIAL HNEW IS AN EXACT SOLUTION.

 NO OUTPUT CONTROL FOR STRESS PERIOD   25   TIME STEP 1667

 -------------------------------------------------------------------------------
                             SWR1 OUTPUT PRINT TIMES
                        STRESS PERIOD   25   TIME STEP  1667
 --------------- --------------- --------------- --------------- ---------------
     0.28644E+06                                                                
 -------------------------------------------------------------------------------
 
 SOLVING FOR HEAD 
 INITIAL HNEW IS AN EXACT SOLUTION.

 NO OUTPUT CONTROL FOR STRESS PERIOD   25   TIME STEP 1668

 -------------------------------------------------------------------------------
                             SWR1 OUTPUT PRINT TIMES
                        STRESS PERIOD   25   TIME STEP  1668
 --------------- --------------- --------------- --------------- ---------------
     0.28656E+06                                                                
 -------------------------------------------------------------------------------
 
 SOLVING FOR HEAD 
 INITIAL HNEW IS AN EXACT SOLUTION.

 NO OUTPUT CONTROL FOR STRESS PERIOD   25   TIME STEP 1669

 -------------------------------------------------------------------------------
                             SWR1 OUTPUT PRINT TIMES
                        STRESS PERIOD   25   TIME STEP  1669
 --------------- --------------- --------------- --------------- ---------------
     0.28668E+06                                                                
 -------------------------------------------------------------------------------
 
 SOLVING FOR HEAD 
 INITIAL HNEW IS AN EXACT SOLUTION.

 NO OUTPUT CONTROL FOR STRESS PERIOD   25   TIME STEP 1670

 -------------------------------------------------------------------------------
                             SWR1 OUTPUT PRINT TIMES
                        STRESS PERIOD   25   TIME STEP  1670
 --------------- --------------- --------------- --------------- ---------------
     0.28680E+06                                                                
 -------------------------------------------------------------------------------
 
 SOLVING FOR HEAD 
 INITIAL HNEW IS AN EXACT SOLUTION.

 NO OUTPUT CONTROL FOR STRESS PERIOD   25   TIME STEP 1671

 -------------------------------------------------------------------------------
                             SWR1 OUTPUT PRINT TIMES
                        STRESS PERIOD   25   TIME STEP  1671
 --------------- --------------- --------------- --------------- ---------------
     0.28692E+06                                                                
 -------------------------------------------------------------------------------
 
 SOLVING FOR HEAD 
 INITIAL HNEW IS AN EXACT SOLUTION.

 NO OUTPUT CONTROL FOR STRESS PERIOD   25   TIME STEP 1672

 -------------------------------------------------------------------------------
                             SWR1 OUTPUT PRINT TIMES
                        STRESS PERIOD   25   TIME STEP  1672
 --------------- --------------- --------------- --------------- ---------------
     0.28704E+06                                                                
 -------------------------------------------------------------------------------
 
 SOLVING FOR HEAD 
 INITIAL HNEW IS AN EXACT SOLUTION.

 NO OUTPUT CONTROL FOR STRESS PERIOD   25   TIME STEP 1673

 -------------------------------------------------------------------------------
                             SWR1 OUTPUT PRINT TIMES
                        STRESS PERIOD   25   TIME STEP  1673
 --------------- --------------- --------------- --------------- ---------------
     0.28716E+06                                                                
 -------------------------------------------------------------------------------
 
 SOLVING FOR HEAD 
 INITIAL HNEW IS AN EXACT SOLUTION.

 NO OUTPUT CONTROL FOR STRESS PERIOD   25   TIME STEP 1674

 -------------------------------------------------------------------------------
                             SWR1 OUTPUT PRINT TIMES
                        STRESS PERIOD   25   TIME STEP  1674
 --------------- --------------- --------------- --------------- ---------------
     0.28728E+06                                                                
 -------------------------------------------------------------------------------
 
 SOLVING FOR HEAD 
 INITIAL HNEW IS AN EXACT SOLUTION.

 NO OUTPUT CONTROL FOR STRESS PERIOD   25   TIME STEP 1675

 -------------------------------------------------------------------------------
                             SWR1 OUTPUT PRINT TIMES
                        STRESS PERIOD   25   TIME STEP  1675
 --------------- --------------- --------------- --------------- ---------------
     0.28740E+06                                                                
 -------------------------------------------------------------------------------
 
 SOLVING FOR HEAD 
 INITIAL HNEW IS AN EXACT SOLUTION.

 NO OUTPUT CONTROL FOR STRESS PERIOD   25   TIME STEP 1676

 -------------------------------------------------------------------------------
                             SWR1 OUTPUT PRINT TIMES
                        STRESS PERIOD   25   TIME STEP  1676
 --------------- --------------- --------------- --------------- ---------------
     0.28752E+06                                                                
 -------------------------------------------------------------------------------
 
 SOLVING FOR HEAD 
 INITIAL HNEW IS AN EXACT SOLUTION.

 NO OUTPUT CONTROL FOR STRESS PERIOD   25   TIME STEP 1677

 -------------------------------------------------------------------------------
                             SWR1 OUTPUT PRINT TIMES
                        STRESS PERIOD   25   TIME STEP  1677
 --------------- --------------- --------------- --------------- ---------------
     0.28764E+06                                                                
 -------------------------------------------------------------------------------
 
 SOLVING FOR HEAD 
 INITIAL HNEW IS AN EXACT SOLUTION.

 NO OUTPUT CONTROL FOR STRESS PERIOD   25   TIME STEP 1678

 -------------------------------------------------------------------------------
                             SWR1 OUTPUT PRINT TIMES
                        STRESS PERIOD   25   TIME STEP  1678
 --------------- --------------- --------------- --------------- ---------------
     0.28776E+06                                                                
 -------------------------------------------------------------------------------
 
 SOLVING FOR HEAD 
 INITIAL HNEW IS AN EXACT SOLUTION.

 NO OUTPUT CONTROL FOR STRESS PERIOD   25   TIME STEP 1679

 -------------------------------------------------------------------------------
                             SWR1 OUTPUT PRINT TIMES
                        STRESS PERIOD   25   TIME STEP  1679
 --------------- --------------- --------------- --------------- ---------------
     0.28788E+06                                                                
 -------------------------------------------------------------------------------
 
 SOLVING FOR HEAD 
 INITIAL HNEW IS AN EXACT SOLUTION.

 NO OUTPUT CONTROL FOR STRESS PERIOD   25   TIME STEP 1680

 -------------------------------------------------------------------------------
                             SWR1 OUTPUT PRINT TIMES
                        STRESS PERIOD   25   TIME STEP  1680
 --------------- --------------- --------------- --------------- ---------------
     0.28800E+06                                                                
 -------------------------------------------------------------------------------
 
 SOLVING FOR HEAD 
 INITIAL HNEW IS AN EXACT SOLUTION.

 NO OUTPUT CONTROL FOR STRESS PERIOD   25   TIME STEP 1681

 -------------------------------------------------------------------------------
                             SWR1 OUTPUT PRINT TIMES
                        STRESS PERIOD   25   TIME STEP  1681
 --------------- --------------- --------------- --------------- ---------------
     0.28812E+06                                                                
 -------------------------------------------------------------------------------
 
 SOLVING FOR HEAD 
 INITIAL HNEW IS AN EXACT SOLUTION.

 NO OUTPUT CONTROL FOR STRESS PERIOD   25   TIME STEP 1682

 -------------------------------------------------------------------------------
                             SWR1 OUTPUT PRINT TIMES
                        STRESS PERIOD   25   TIME STEP  1682
 --------------- --------------- --------------- --------------- ---------------
     0.28824E+06                                                                
 -------------------------------------------------------------------------------
 
 SOLVING FOR HEAD 
 INITIAL HNEW IS AN EXACT SOLUTION.

 NO OUTPUT CONTROL FOR STRESS PERIOD   25   TIME STEP 1683

 -------------------------------------------------------------------------------
                             SWR1 OUTPUT PRINT TIMES
                        STRESS PERIOD   25   TIME STEP  1683
 --------------- --------------- --------------- --------------- ---------------
     0.28836E+06                                                                
 -------------------------------------------------------------------------------
 
 SOLVING FOR HEAD 
 INITIAL HNEW IS AN EXACT SOLUTION.

 NO OUTPUT CONTROL FOR STRESS PERIOD   25   TIME STEP 1684

 -------------------------------------------------------------------------------
                             SWR1 OUTPUT PRINT TIMES
                        STRESS PERIOD   25   TIME STEP  1684
 --------------- --------------- --------------- --------------- ---------------
     0.28848E+06                                                                
 -------------------------------------------------------------------------------
 
 SOLVING FOR HEAD 
 INITIAL HNEW IS AN EXACT SOLUTION.

 NO OUTPUT CONTROL FOR STRESS PERIOD   25   TIME STEP 1685

 -------------------------------------------------------------------------------
                             SWR1 OUTPUT PRINT TIMES
                        STRESS PERIOD   25   TIME STEP  1685
 --------------- --------------- --------------- --------------- ---------------
     0.28860E+06                                                                
 -------------------------------------------------------------------------------
 
 SOLVING FOR HEAD 
 INITIAL HNEW IS AN EXACT SOLUTION.

 NO OUTPUT CONTROL FOR STRESS PERIOD   25   TIME STEP 1686

 -------------------------------------------------------------------------------
                             SWR1 OUTPUT PRINT TIMES
                        STRESS PERIOD   25   TIME STEP  1686
 --------------- --------------- --------------- --------------- ---------------
     0.28872E+06                                                                
 -------------------------------------------------------------------------------
 
 SOLVING FOR HEAD 
 INITIAL HNEW IS AN EXACT SOLUTION.

 NO OUTPUT CONTROL FOR STRESS PERIOD   25   TIME STEP 1687

 -------------------------------------------------------------------------------
                             SWR1 OUTPUT PRINT TIMES
                        STRESS PERIOD   25   TIME STEP  1687
 --------------- --------------- --------------- --------------- ---------------
     0.28884E+06                                                                
 -------------------------------------------------------------------------------
 
 SOLVING FOR HEAD 
 INITIAL HNEW IS AN EXACT SOLUTION.

 NO OUTPUT CONTROL FOR STRESS PERIOD   25   TIME STEP 1688

 -------------------------------------------------------------------------------
                             SWR1 OUTPUT PRINT TIMES
                        STRESS PERIOD   25   TIME STEP  1688
 --------------- --------------- --------------- --------------- ---------------
     0.28896E+06                                                                
 -------------------------------------------------------------------------------
 
 SOLVING FOR HEAD 
 INITIAL HNEW IS AN EXACT SOLUTION.

 NO OUTPUT CONTROL FOR STRESS PERIOD   25   TIME STEP 1689

 -------------------------------------------------------------------------------
                             SWR1 OUTPUT PRINT TIMES
                        STRESS PERIOD   25   TIME STEP  1689
 --------------- --------------- --------------- --------------- ---------------
     0.28908E+06                                                                
 -------------------------------------------------------------------------------
 
 SOLVING FOR HEAD 
 INITIAL HNEW IS AN EXACT SOLUTION.

 NO OUTPUT CONTROL FOR STRESS PERIOD   25   TIME STEP 1690

 -------------------------------------------------------------------------------
                             SWR1 OUTPUT PRINT TIMES
                        STRESS PERIOD   25   TIME STEP  1690
 --------------- --------------- --------------- --------------- ---------------
     0.28920E+06                                                                
 -------------------------------------------------------------------------------
 
 SOLVING FOR HEAD 
 INITIAL HNEW IS AN EXACT SOLUTION.

 NO OUTPUT CONTROL FOR STRESS PERIOD   25   TIME STEP 1691

 -------------------------------------------------------------------------------
                             SWR1 OUTPUT PRINT TIMES
                        STRESS PERIOD   25   TIME STEP  1691
 --------------- --------------- --------------- --------------- ---------------
     0.28932E+06                                                                
 -------------------------------------------------------------------------------
 
 SOLVING FOR HEAD 
 INITIAL HNEW IS AN EXACT SOLUTION.

 NO OUTPUT CONTROL FOR STRESS PERIOD   25   TIME STEP 1692

 -------------------------------------------------------------------------------
                             SWR1 OUTPUT PRINT TIMES
                        STRESS PERIOD   25   TIME STEP  1692
 --------------- --------------- --------------- --------------- ---------------
     0.28944E+06                                                                
 -------------------------------------------------------------------------------
 
 SOLVING FOR HEAD 
 INITIAL HNEW IS AN EXACT SOLUTION.

 NO OUTPUT CONTROL FOR STRESS PERIOD   25   TIME STEP 1693

 -------------------------------------------------------------------------------
                             SWR1 OUTPUT PRINT TIMES
                        STRESS PERIOD   25   TIME STEP  1693
 --------------- --------------- --------------- --------------- ---------------
     0.28956E+06                                                                
 -------------------------------------------------------------------------------
 
 SOLVING FOR HEAD 
 INITIAL HNEW IS AN EXACT SOLUTION.

 NO OUTPUT CONTROL FOR STRESS PERIOD   25   TIME STEP 1694

 -------------------------------------------------------------------------------
                             SWR1 OUTPUT PRINT TIMES
                        STRESS PERIOD   25   TIME STEP  1694
 --------------- --------------- --------------- --------------- ---------------
     0.28968E+06                                                                
 -------------------------------------------------------------------------------
 
 SOLVING FOR HEAD 
 INITIAL HNEW IS AN EXACT SOLUTION.

 NO OUTPUT CONTROL FOR STRESS PERIOD   25   TIME STEP 1695

 -------------------------------------------------------------------------------
                             SWR1 OUTPUT PRINT TIMES
                        STRESS PERIOD   25   TIME STEP  1695
 --------------- --------------- --------------- --------------- ---------------
     0.28980E+06                                                                
 -------------------------------------------------------------------------------
 
 SOLVING FOR HEAD 
 INITIAL HNEW IS AN EXACT SOLUTION.

 NO OUTPUT CONTROL FOR STRESS PERIOD   25   TIME STEP 1696

 -------------------------------------------------------------------------------
                             SWR1 OUTPUT PRINT TIMES
                        STRESS PERIOD   25   TIME STEP  1696
 --------------- --------------- --------------- --------------- ---------------
     0.28992E+06                                                                
 -------------------------------------------------------------------------------
 
 SOLVING FOR HEAD 
 INITIAL HNEW IS AN EXACT SOLUTION.

 NO OUTPUT CONTROL FOR STRESS PERIOD   25   TIME STEP 1697

 -------------------------------------------------------------------------------
                             SWR1 OUTPUT PRINT TIMES
                        STRESS PERIOD   25   TIME STEP  1697
 --------------- --------------- --------------- --------------- ---------------
     0.29004E+06                                                                
 -------------------------------------------------------------------------------
 
 SOLVING FOR HEAD 
 INITIAL HNEW IS AN EXACT SOLUTION.

 NO OUTPUT CONTROL FOR STRESS PERIOD   25   TIME STEP 1698

 -------------------------------------------------------------------------------
                             SWR1 OUTPUT PRINT TIMES
                        STRESS PERIOD   25   TIME STEP  1698
 --------------- --------------- --------------- --------------- ---------------
     0.29016E+06                                                                
 -------------------------------------------------------------------------------
 
 SOLVING FOR HEAD 
 INITIAL HNEW IS AN EXACT SOLUTION.

 NO OUTPUT CONTROL FOR STRESS PERIOD   25   TIME STEP 1699

 -------------------------------------------------------------------------------
                             SWR1 OUTPUT PRINT TIMES
                        STRESS PERIOD   25   TIME STEP  1699
 --------------- --------------- --------------- --------------- ---------------
     0.29028E+06                                                                
 -------------------------------------------------------------------------------
 
 SOLVING FOR HEAD 
 INITIAL HNEW IS AN EXACT SOLUTION.

 NO OUTPUT CONTROL FOR STRESS PERIOD   25   TIME STEP 1700

 -------------------------------------------------------------------------------
                             SWR1 OUTPUT PRINT TIMES
                        STRESS PERIOD   25   TIME STEP  1700
 --------------- --------------- --------------- --------------- ---------------
     0.29040E+06                                                                
 -------------------------------------------------------------------------------
 
 SOLVING FOR HEAD 
 INITIAL HNEW IS AN EXACT SOLUTION.

 NO OUTPUT CONTROL FOR STRESS PERIOD   25   TIME STEP 1701

 -------------------------------------------------------------------------------
                             SWR1 OUTPUT PRINT TIMES
                        STRESS PERIOD   25   TIME STEP  1701
 --------------- --------------- --------------- --------------- ---------------
     0.29052E+06                                                                
 -------------------------------------------------------------------------------
 
 SOLVING FOR HEAD 
 INITIAL HNEW IS AN EXACT SOLUTION.

 NO OUTPUT CONTROL FOR STRESS PERIOD   25   TIME STEP 1702

 -------------------------------------------------------------------------------
                             SWR1 OUTPUT PRINT TIMES
                        STRESS PERIOD   25   TIME STEP  1702
 --------------- --------------- --------------- --------------- ---------------
     0.29064E+06                                                                
 -------------------------------------------------------------------------------
 
 SOLVING FOR HEAD 
 INITIAL HNEW IS AN EXACT SOLUTION.

 NO OUTPUT CONTROL FOR STRESS PERIOD   25   TIME STEP 1703

 -------------------------------------------------------------------------------
                             SWR1 OUTPUT PRINT TIMES
                        STRESS PERIOD   25   TIME STEP  1703
 --------------- --------------- --------------- --------------- ---------------
     0.29076E+06                                                                
 -------------------------------------------------------------------------------
 
 SOLVING FOR HEAD 
 INITIAL HNEW IS AN EXACT SOLUTION.

 NO OUTPUT CONTROL FOR STRESS PERIOD   25   TIME STEP 1704

 -------------------------------------------------------------------------------
                             SWR1 OUTPUT PRINT TIMES
                        STRESS PERIOD   25   TIME STEP  1704
 --------------- --------------- --------------- --------------- ---------------
     0.29088E+06                                                                
 -------------------------------------------------------------------------------
 
 SOLVING FOR HEAD 
 INITIAL HNEW IS AN EXACT SOLUTION.

 NO OUTPUT CONTROL FOR STRESS PERIOD   25   TIME STEP 1705

 -------------------------------------------------------------------------------
                             SWR1 OUTPUT PRINT TIMES
                        STRESS PERIOD   25   TIME STEP  1705
 --------------- --------------- --------------- --------------- ---------------
     0.29100E+06                                                                
 -------------------------------------------------------------------------------
 
 SOLVING FOR HEAD 
 INITIAL HNEW IS AN EXACT SOLUTION.

 NO OUTPUT CONTROL FOR STRESS PERIOD   25   TIME STEP 1706

 -------------------------------------------------------------------------------
                             SWR1 OUTPUT PRINT TIMES
                        STRESS PERIOD   25   TIME STEP  1706
 --------------- --------------- --------------- --------------- ---------------
     0.29112E+06                                                                
 -------------------------------------------------------------------------------
 
 SOLVING FOR HEAD 
 INITIAL HNEW IS AN EXACT SOLUTION.

 NO OUTPUT CONTROL FOR STRESS PERIOD   25   TIME STEP 1707

 -------------------------------------------------------------------------------
                             SWR1 OUTPUT PRINT TIMES
                        STRESS PERIOD   25   TIME STEP  1707
 --------------- --------------- --------------- --------------- ---------------
     0.29124E+06                                                                
 -------------------------------------------------------------------------------
 
 SOLVING FOR HEAD 
 INITIAL HNEW IS AN EXACT SOLUTION.

 NO OUTPUT CONTROL FOR STRESS PERIOD   25   TIME STEP 1708

 -------------------------------------------------------------------------------
                             SWR1 OUTPUT PRINT TIMES
                        STRESS PERIOD   25   TIME STEP  1708
 --------------- --------------- --------------- --------------- ---------------
     0.29136E+06                                                                
 -------------------------------------------------------------------------------
 
 SOLVING FOR HEAD 
 INITIAL HNEW IS AN EXACT SOLUTION.

 NO OUTPUT CONTROL FOR STRESS PERIOD   25   TIME STEP 1709

 -------------------------------------------------------------------------------
                             SWR1 OUTPUT PRINT TIMES
                        STRESS PERIOD   25   TIME STEP  1709
 --------------- --------------- --------------- --------------- ---------------
     0.29148E+06                                                                
 -------------------------------------------------------------------------------
 
 SOLVING FOR HEAD 
 INITIAL HNEW IS AN EXACT SOLUTION.

 NO OUTPUT CONTROL FOR STRESS PERIOD   25   TIME STEP 1710

 -------------------------------------------------------------------------------
                             SWR1 OUTPUT PRINT TIMES
                        STRESS PERIOD   25   TIME STEP  1710
 --------------- --------------- --------------- --------------- ---------------
     0.29160E+06                                                                
 -------------------------------------------------------------------------------
 
 SOLVING FOR HEAD 
 INITIAL HNEW IS AN EXACT SOLUTION.

 NO OUTPUT CONTROL FOR STRESS PERIOD   25   TIME STEP 1711

 -------------------------------------------------------------------------------
                             SWR1 OUTPUT PRINT TIMES
                        STRESS PERIOD   25   TIME STEP  1711
 --------------- --------------- --------------- --------------- ---------------
     0.29172E+06                                                                
 -------------------------------------------------------------------------------
 
 SOLVING FOR HEAD 
 INITIAL HNEW IS AN EXACT SOLUTION.

 NO OUTPUT CONTROL FOR STRESS PERIOD   25   TIME STEP 1712

 -------------------------------------------------------------------------------
                             SWR1 OUTPUT PRINT TIMES
                        STRESS PERIOD   25   TIME STEP  1712
 --------------- --------------- --------------- --------------- ---------------
     0.29184E+06                                                                
 -------------------------------------------------------------------------------
 
 SOLVING FOR HEAD 
 INITIAL HNEW IS AN EXACT SOLUTION.

 NO OUTPUT CONTROL FOR STRESS PERIOD   25   TIME STEP 1713

 -------------------------------------------------------------------------------
                             SWR1 OUTPUT PRINT TIMES
                        STRESS PERIOD   25   TIME STEP  1713
 --------------- --------------- --------------- --------------- ---------------
     0.29196E+06                                                                
 -------------------------------------------------------------------------------
 
 SOLVING FOR HEAD 
 INITIAL HNEW IS AN EXACT SOLUTION.

 NO OUTPUT CONTROL FOR STRESS PERIOD   25   TIME STEP 1714

 -------------------------------------------------------------------------------
                             SWR1 OUTPUT PRINT TIMES
                        STRESS PERIOD   25   TIME STEP  1714
 --------------- --------------- --------------- --------------- ---------------
     0.29208E+06                                                                
 -------------------------------------------------------------------------------
 
 SOLVING FOR HEAD 
 INITIAL HNEW IS AN EXACT SOLUTION.

 NO OUTPUT CONTROL FOR STRESS PERIOD   25   TIME STEP 1715

 -------------------------------------------------------------------------------
                             SWR1 OUTPUT PRINT TIMES
                        STRESS PERIOD   25   TIME STEP  1715
 --------------- --------------- --------------- --------------- ---------------
     0.29220E+06                                                                
 -------------------------------------------------------------------------------
 
 SOLVING FOR HEAD 
 INITIAL HNEW IS AN EXACT SOLUTION.

 NO OUTPUT CONTROL FOR STRESS PERIOD   25   TIME STEP 1716

 -------------------------------------------------------------------------------
                             SWR1 OUTPUT PRINT TIMES
                        STRESS PERIOD   25   TIME STEP  1716
 --------------- --------------- --------------- --------------- ---------------
     0.29232E+06                                                                
 -------------------------------------------------------------------------------
 
 SOLVING FOR HEAD 
 INITIAL HNEW IS AN EXACT SOLUTION.

 NO OUTPUT CONTROL FOR STRESS PERIOD   25   TIME STEP 1717

 -------------------------------------------------------------------------------
                             SWR1 OUTPUT PRINT TIMES
                        STRESS PERIOD   25   TIME STEP  1717
 --------------- --------------- --------------- --------------- ---------------
     0.29244E+06                                                                
 -------------------------------------------------------------------------------
 
 SOLVING FOR HEAD 
 INITIAL HNEW IS AN EXACT SOLUTION.

 NO OUTPUT CONTROL FOR STRESS PERIOD   25   TIME STEP 1718

 -------------------------------------------------------------------------------
                             SWR1 OUTPUT PRINT TIMES
                        STRESS PERIOD   25   TIME STEP  1718
 --------------- --------------- --------------- --------------- ---------------
     0.29256E+06                                                                
 -------------------------------------------------------------------------------
 
 SOLVING FOR HEAD 
 INITIAL HNEW IS AN EXACT SOLUTION.

 NO OUTPUT CONTROL FOR STRESS PERIOD   25   TIME STEP 1719

 -------------------------------------------------------------------------------
                             SWR1 OUTPUT PRINT TIMES
                        STRESS PERIOD   25   TIME STEP  1719
 --------------- --------------- --------------- --------------- ---------------
     0.29268E+06                                                                
 -------------------------------------------------------------------------------
 
 SOLVING FOR HEAD 
 INITIAL HNEW IS AN EXACT SOLUTION.

 NO OUTPUT CONTROL FOR STRESS PERIOD   25   TIME STEP 1720

 -------------------------------------------------------------------------------
                             SWR1 OUTPUT PRINT TIMES
                        STRESS PERIOD   25   TIME STEP  1720
 --------------- --------------- --------------- --------------- ---------------
     0.29280E+06                                                                
 -------------------------------------------------------------------------------
 
 SOLVING FOR HEAD 
 INITIAL HNEW IS AN EXACT SOLUTION.

 NO OUTPUT CONTROL FOR STRESS PERIOD   25   TIME STEP 1721

 -------------------------------------------------------------------------------
                             SWR1 OUTPUT PRINT TIMES
                        STRESS PERIOD   25   TIME STEP  1721
 --------------- --------------- --------------- --------------- ---------------
     0.29292E+06                                                                
 -------------------------------------------------------------------------------
 
 SOLVING FOR HEAD 
 INITIAL HNEW IS AN EXACT SOLUTION.

 NO OUTPUT CONTROL FOR STRESS PERIOD   25   TIME STEP 1722

 -------------------------------------------------------------------------------
                             SWR1 OUTPUT PRINT TIMES
                        STRESS PERIOD   25   TIME STEP  1722
 --------------- --------------- --------------- --------------- ---------------
     0.29304E+06                                                                
 -------------------------------------------------------------------------------
 
 SOLVING FOR HEAD 
 INITIAL HNEW IS AN EXACT SOLUTION.

 NO OUTPUT CONTROL FOR STRESS PERIOD   25   TIME STEP 1723

 -------------------------------------------------------------------------------
                             SWR1 OUTPUT PRINT TIMES
                        STRESS PERIOD   25   TIME STEP  1723
 --------------- --------------- --------------- --------------- ---------------
     0.29316E+06                                                                
 -------------------------------------------------------------------------------
 
 SOLVING FOR HEAD 
 INITIAL HNEW IS AN EXACT SOLUTION.

 NO OUTPUT CONTROL FOR STRESS PERIOD   25   TIME STEP 1724

 -------------------------------------------------------------------------------
                             SWR1 OUTPUT PRINT TIMES
                        STRESS PERIOD   25   TIME STEP  1724
 --------------- --------------- --------------- --------------- ---------------
     0.29328E+06                                                                
 -------------------------------------------------------------------------------
 
 SOLVING FOR HEAD 
 INITIAL HNEW IS AN EXACT SOLUTION.

 NO OUTPUT CONTROL FOR STRESS PERIOD   25   TIME STEP 1725

 -------------------------------------------------------------------------------
                             SWR1 OUTPUT PRINT TIMES
                        STRESS PERIOD   25   TIME STEP  1725
 --------------- --------------- --------------- --------------- ---------------
     0.29340E+06                                                                
 -------------------------------------------------------------------------------
 
 SOLVING FOR HEAD 
 INITIAL HNEW IS AN EXACT SOLUTION.

 NO OUTPUT CONTROL FOR STRESS PERIOD   25   TIME STEP 1726

 -------------------------------------------------------------------------------
                             SWR1 OUTPUT PRINT TIMES
                        STRESS PERIOD   25   TIME STEP  1726
 --------------- --------------- --------------- --------------- ---------------
     0.29352E+06                                                                
 -------------------------------------------------------------------------------
 
 SOLVING FOR HEAD 
 INITIAL HNEW IS AN EXACT SOLUTION.

 NO OUTPUT CONTROL FOR STRESS PERIOD   25   TIME STEP 1727

 -------------------------------------------------------------------------------
                             SWR1 OUTPUT PRINT TIMES
                        STRESS PERIOD   25   TIME STEP  1727
 --------------- --------------- --------------- --------------- ---------------
     0.29364E+06                                                                
 -------------------------------------------------------------------------------
 
 SOLVING FOR HEAD 
 INITIAL HNEW IS AN EXACT SOLUTION.

 NO OUTPUT CONTROL FOR STRESS PERIOD   25   TIME STEP 1728

 -------------------------------------------------------------------------------
                             SWR1 OUTPUT PRINT TIMES
                        STRESS PERIOD   25   TIME STEP  1728
 --------------- --------------- --------------- --------------- ---------------
     0.29376E+06                                                                
 -------------------------------------------------------------------------------
 
 SOLVING FOR HEAD 
 INITIAL HNEW IS AN EXACT SOLUTION.

 NO OUTPUT CONTROL FOR STRESS PERIOD   25   TIME STEP 1729

 -------------------------------------------------------------------------------
                             SWR1 OUTPUT PRINT TIMES
                        STRESS PERIOD   25   TIME STEP  1729
 --------------- --------------- --------------- --------------- ---------------
     0.29388E+06                                                                
 -------------------------------------------------------------------------------
 
 SOLVING FOR HEAD 
 INITIAL HNEW IS AN EXACT SOLUTION.

 NO OUTPUT CONTROL FOR STRESS PERIOD   25   TIME STEP 1730

 -------------------------------------------------------------------------------
                             SWR1 OUTPUT PRINT TIMES
                        STRESS PERIOD   25   TIME STEP  1730
 --------------- --------------- --------------- --------------- ---------------
     0.29400E+06                                                                
 -------------------------------------------------------------------------------
 
 SOLVING FOR HEAD 
 INITIAL HNEW IS AN EXACT SOLUTION.

 NO OUTPUT CONTROL FOR STRESS PERIOD   25   TIME STEP 1731

 -------------------------------------------------------------------------------
                             SWR1 OUTPUT PRINT TIMES
                        STRESS PERIOD   25   TIME STEP  1731
 --------------- --------------- --------------- --------------- ---------------
     0.29412E+06                                                                
 -------------------------------------------------------------------------------
 
 SOLVING FOR HEAD 
 INITIAL HNEW IS AN EXACT SOLUTION.

 NO OUTPUT CONTROL FOR STRESS PERIOD   25   TIME STEP 1732

 -------------------------------------------------------------------------------
                             SWR1 OUTPUT PRINT TIMES
                        STRESS PERIOD   25   TIME STEP  1732
 --------------- --------------- --------------- --------------- ---------------
     0.29424E+06                                                                
 -------------------------------------------------------------------------------
 
 SOLVING FOR HEAD 
 INITIAL HNEW IS AN EXACT SOLUTION.

 NO OUTPUT CONTROL FOR STRESS PERIOD   25   TIME STEP 1733

 -------------------------------------------------------------------------------
                             SWR1 OUTPUT PRINT TIMES
                        STRESS PERIOD   25   TIME STEP  1733
 --------------- --------------- --------------- --------------- ---------------
     0.29436E+06                                                                
 -------------------------------------------------------------------------------
 
 SOLVING FOR HEAD 
 INITIAL HNEW IS AN EXACT SOLUTION.

 NO OUTPUT CONTROL FOR STRESS PERIOD   25   TIME STEP 1734

 -------------------------------------------------------------------------------
                             SWR1 OUTPUT PRINT TIMES
                        STRESS PERIOD   25   TIME STEP  1734
 --------------- --------------- --------------- --------------- ---------------
     0.29448E+06                                                                
 -------------------------------------------------------------------------------
 
 SOLVING FOR HEAD 
 INITIAL HNEW IS AN EXACT SOLUTION.

 NO OUTPUT CONTROL FOR STRESS PERIOD   25   TIME STEP 1735

 -------------------------------------------------------------------------------
                             SWR1 OUTPUT PRINT TIMES
                        STRESS PERIOD   25   TIME STEP  1735
 --------------- --------------- --------------- --------------- ---------------
     0.29460E+06                                                                
 -------------------------------------------------------------------------------
 
 SOLVING FOR HEAD 
 INITIAL HNEW IS AN EXACT SOLUTION.

 NO OUTPUT CONTROL FOR STRESS PERIOD   25   TIME STEP 1736

 -------------------------------------------------------------------------------
                             SWR1 OUTPUT PRINT TIMES
                        STRESS PERIOD   25   TIME STEP  1736
 --------------- --------------- --------------- --------------- ---------------
     0.29472E+06                                                                
 -------------------------------------------------------------------------------
 
 SOLVING FOR HEAD 
 INITIAL HNEW IS AN EXACT SOLUTION.

 NO OUTPUT CONTROL FOR STRESS PERIOD   25   TIME STEP 1737

 -------------------------------------------------------------------------------
                             SWR1 OUTPUT PRINT TIMES
                        STRESS PERIOD   25   TIME STEP  1737
 --------------- --------------- --------------- --------------- ---------------
     0.29484E+06                                                                
 -------------------------------------------------------------------------------
 
 SOLVING FOR HEAD 
 INITIAL HNEW IS AN EXACT SOLUTION.

 NO OUTPUT CONTROL FOR STRESS PERIOD   25   TIME STEP 1738

 -------------------------------------------------------------------------------
                             SWR1 OUTPUT PRINT TIMES
                        STRESS PERIOD   25   TIME STEP  1738
 --------------- --------------- --------------- --------------- ---------------
     0.29496E+06                                                                
 -------------------------------------------------------------------------------
 
 SOLVING FOR HEAD 
 INITIAL HNEW IS AN EXACT SOLUTION.

 NO OUTPUT CONTROL FOR STRESS PERIOD   25   TIME STEP 1739

 -------------------------------------------------------------------------------
                             SWR1 OUTPUT PRINT TIMES
                        STRESS PERIOD   25   TIME STEP  1739
 --------------- --------------- --------------- --------------- ---------------
     0.29508E+06                                                                
 -------------------------------------------------------------------------------
 
 SOLVING FOR HEAD 
 INITIAL HNEW IS AN EXACT SOLUTION.

 NO OUTPUT CONTROL FOR STRESS PERIOD   25   TIME STEP 1740

 -------------------------------------------------------------------------------
                             SWR1 OUTPUT PRINT TIMES
                        STRESS PERIOD   25   TIME STEP  1740
 --------------- --------------- --------------- --------------- ---------------
     0.29520E+06                                                                
 -------------------------------------------------------------------------------
 
 SOLVING FOR HEAD 
 INITIAL HNEW IS AN EXACT SOLUTION.

 NO OUTPUT CONTROL FOR STRESS PERIOD   25   TIME STEP 1741

 -------------------------------------------------------------------------------
                             SWR1 OUTPUT PRINT TIMES
                        STRESS PERIOD   25   TIME STEP  1741
 --------------- --------------- --------------- --------------- ---------------
     0.29532E+06                                                                
 -------------------------------------------------------------------------------
 
 SOLVING FOR HEAD 
 INITIAL HNEW IS AN EXACT SOLUTION.

 NO OUTPUT CONTROL FOR STRESS PERIOD   25   TIME STEP 1742

 -------------------------------------------------------------------------------
                             SWR1 OUTPUT PRINT TIMES
                        STRESS PERIOD   25   TIME STEP  1742
 --------------- --------------- --------------- --------------- ---------------
     0.29544E+06                                                                
 -------------------------------------------------------------------------------
 
 SOLVING FOR HEAD 
 INITIAL HNEW IS AN EXACT SOLUTION.

 NO OUTPUT CONTROL FOR STRESS PERIOD   25   TIME STEP 1743

 -------------------------------------------------------------------------------
                             SWR1 OUTPUT PRINT TIMES
                        STRESS PERIOD   25   TIME STEP  1743
 --------------- --------------- --------------- --------------- ---------------
     0.29556E+06                                                                
 -------------------------------------------------------------------------------
 
 SOLVING FOR HEAD 
 INITIAL HNEW IS AN EXACT SOLUTION.

 NO OUTPUT CONTROL FOR STRESS PERIOD   25   TIME STEP 1744

 -------------------------------------------------------------------------------
                             SWR1 OUTPUT PRINT TIMES
                        STRESS PERIOD   25   TIME STEP  1744
 --------------- --------------- --------------- --------------- ---------------
     0.29568E+06                                                                
 -------------------------------------------------------------------------------
 
 SOLVING FOR HEAD 
 INITIAL HNEW IS AN EXACT SOLUTION.

 NO OUTPUT CONTROL FOR STRESS PERIOD   25   TIME STEP 1745

 -------------------------------------------------------------------------------
                             SWR1 OUTPUT PRINT TIMES
                        STRESS PERIOD   25   TIME STEP  1745
 --------------- --------------- --------------- --------------- ---------------
     0.29580E+06                                                                
 -------------------------------------------------------------------------------
 
 SOLVING FOR HEAD 
 INITIAL HNEW IS AN EXACT SOLUTION.

 NO OUTPUT CONTROL FOR STRESS PERIOD   25   TIME STEP 1746

 -------------------------------------------------------------------------------
                             SWR1 OUTPUT PRINT TIMES
                        STRESS PERIOD   25   TIME STEP  1746
 --------------- --------------- --------------- --------------- ---------------
     0.29592E+06                                                                
 -------------------------------------------------------------------------------
 
 SOLVING FOR HEAD 
 INITIAL HNEW IS AN EXACT SOLUTION.

 NO OUTPUT CONTROL FOR STRESS PERIOD   25   TIME STEP 1747

 -------------------------------------------------------------------------------
                             SWR1 OUTPUT PRINT TIMES
                        STRESS PERIOD   25   TIME STEP  1747
 --------------- --------------- --------------- --------------- ---------------
     0.29604E+06                                                                
 -------------------------------------------------------------------------------
 
 SOLVING FOR HEAD 
 INITIAL HNEW IS AN EXACT SOLUTION.

 NO OUTPUT CONTROL FOR STRESS PERIOD   25   TIME STEP 1748

 -------------------------------------------------------------------------------
                             SWR1 OUTPUT PRINT TIMES
                        STRESS PERIOD   25   TIME STEP  1748
 --------------- --------------- --------------- --------------- ---------------
     0.29616E+06                                                                
 -------------------------------------------------------------------------------
 
 SOLVING FOR HEAD 
 INITIAL HNEW IS AN EXACT SOLUTION.

 NO OUTPUT CONTROL FOR STRESS PERIOD   25   TIME STEP 1749

 -------------------------------------------------------------------------------
                             SWR1 OUTPUT PRINT TIMES
                        STRESS PERIOD   25   TIME STEP  1749
 --------------- --------------- --------------- --------------- ---------------
     0.29628E+06                                                                
 -------------------------------------------------------------------------------
 
 SOLVING FOR HEAD 
 INITIAL HNEW IS AN EXACT SOLUTION.

 NO OUTPUT CONTROL FOR STRESS PERIOD   25   TIME STEP 1750

 -------------------------------------------------------------------------------
                             SWR1 OUTPUT PRINT TIMES
                        STRESS PERIOD   25   TIME STEP  1750
 --------------- --------------- --------------- --------------- ---------------
     0.29640E+06                                                                
 -------------------------------------------------------------------------------
 
 SOLVING FOR HEAD 
 INITIAL HNEW IS AN EXACT SOLUTION.

 NO OUTPUT CONTROL FOR STRESS PERIOD   25   TIME STEP 1751

 -------------------------------------------------------------------------------
                             SWR1 OUTPUT PRINT TIMES
                        STRESS PERIOD   25   TIME STEP  1751
 --------------- --------------- --------------- --------------- ---------------
     0.29652E+06                                                                
 -------------------------------------------------------------------------------
 
 SOLVING FOR HEAD 
 INITIAL HNEW IS AN EXACT SOLUTION.

 NO OUTPUT CONTROL FOR STRESS PERIOD   25   TIME STEP 1752

 -------------------------------------------------------------------------------
                             SWR1 OUTPUT PRINT TIMES
                        STRESS PERIOD   25   TIME STEP  1752
 --------------- --------------- --------------- --------------- ---------------
     0.29664E+06                                                                
 -------------------------------------------------------------------------------
 
 SOLVING FOR HEAD 
 INITIAL HNEW IS AN EXACT SOLUTION.

 NO OUTPUT CONTROL FOR STRESS PERIOD   25   TIME STEP 1753

 -------------------------------------------------------------------------------
                             SWR1 OUTPUT PRINT TIMES
                        STRESS PERIOD   25   TIME STEP  1753
 --------------- --------------- --------------- --------------- ---------------
     0.29676E+06                                                                
 -------------------------------------------------------------------------------
 
 SOLVING FOR HEAD 
 INITIAL HNEW IS AN EXACT SOLUTION.

 NO OUTPUT CONTROL FOR STRESS PERIOD   25   TIME STEP 1754

 -------------------------------------------------------------------------------
                             SWR1 OUTPUT PRINT TIMES
                        STRESS PERIOD   25   TIME STEP  1754
 --------------- --------------- --------------- --------------- ---------------
     0.29688E+06                                                                
 -------------------------------------------------------------------------------
 
 SOLVING FOR HEAD 
 INITIAL HNEW IS AN EXACT SOLUTION.

 NO OUTPUT CONTROL FOR STRESS PERIOD   25   TIME STEP 1755

 -------------------------------------------------------------------------------
                             SWR1 OUTPUT PRINT TIMES
                        STRESS PERIOD   25   TIME STEP  1755
 --------------- --------------- --------------- --------------- ---------------
     0.29700E+06                                                                
 -------------------------------------------------------------------------------
 
 SOLVING FOR HEAD 
 INITIAL HNEW IS AN EXACT SOLUTION.

 NO OUTPUT CONTROL FOR STRESS PERIOD   25   TIME STEP 1756

 -------------------------------------------------------------------------------
                             SWR1 OUTPUT PRINT TIMES
                        STRESS PERIOD   25   TIME STEP  1756
 --------------- --------------- --------------- --------------- ---------------
     0.29712E+06                                                                
 -------------------------------------------------------------------------------
 
 SOLVING FOR HEAD 
 INITIAL HNEW IS AN EXACT SOLUTION.

 NO OUTPUT CONTROL FOR STRESS PERIOD   25   TIME STEP 1757

 -------------------------------------------------------------------------------
                             SWR1 OUTPUT PRINT TIMES
                        STRESS PERIOD   25   TIME STEP  1757
 --------------- --------------- --------------- --------------- ---------------
     0.29724E+06                                                                
 -------------------------------------------------------------------------------
 
 SOLVING FOR HEAD 
 INITIAL HNEW IS AN EXACT SOLUTION.

 NO OUTPUT CONTROL FOR STRESS PERIOD   25   TIME STEP 1758

 -------------------------------------------------------------------------------
                             SWR1 OUTPUT PRINT TIMES
                        STRESS PERIOD   25   TIME STEP  1758
 --------------- --------------- --------------- --------------- ---------------
     0.29736E+06                                                                
 -------------------------------------------------------------------------------
 
 SOLVING FOR HEAD 
 INITIAL HNEW IS AN EXACT SOLUTION.

 NO OUTPUT CONTROL FOR STRESS PERIOD   25   TIME STEP 1759

 -------------------------------------------------------------------------------
                             SWR1 OUTPUT PRINT TIMES
                        STRESS PERIOD   25   TIME STEP  1759
 --------------- --------------- --------------- --------------- ---------------
     0.29748E+06                                                                
 -------------------------------------------------------------------------------
 
 SOLVING FOR HEAD 
 INITIAL HNEW IS AN EXACT SOLUTION.

 NO OUTPUT CONTROL FOR STRESS PERIOD   25   TIME STEP 1760

 -------------------------------------------------------------------------------
                             SWR1 OUTPUT PRINT TIMES
                        STRESS PERIOD   25   TIME STEP  1760
 --------------- --------------- --------------- --------------- ---------------
     0.29760E+06                                                                
 -------------------------------------------------------------------------------
 
 SOLVING FOR HEAD 
 INITIAL HNEW IS AN EXACT SOLUTION.

 NO OUTPUT CONTROL FOR STRESS PERIOD   25   TIME STEP 1761

 -------------------------------------------------------------------------------
                             SWR1 OUTPUT PRINT TIMES
                        STRESS PERIOD   25   TIME STEP  1761
 --------------- --------------- --------------- --------------- ---------------
     0.29772E+06                                                                
 -------------------------------------------------------------------------------
 
 SOLVING FOR HEAD 
 INITIAL HNEW IS AN EXACT SOLUTION.

 NO OUTPUT CONTROL FOR STRESS PERIOD   25   TIME STEP 1762

 -------------------------------------------------------------------------------
                             SWR1 OUTPUT PRINT TIMES
                        STRESS PERIOD   25   TIME STEP  1762
 --------------- --------------- --------------- --------------- ---------------
     0.29784E+06                                                                
 -------------------------------------------------------------------------------
 
 SOLVING FOR HEAD 
 INITIAL HNEW IS AN EXACT SOLUTION.

 NO OUTPUT CONTROL FOR STRESS PERIOD   25   TIME STEP 1763

 -------------------------------------------------------------------------------
                             SWR1 OUTPUT PRINT TIMES
                        STRESS PERIOD   25   TIME STEP  1763
 --------------- --------------- --------------- --------------- ---------------
     0.29796E+06                                                                
 -------------------------------------------------------------------------------
 
 SOLVING FOR HEAD 
 INITIAL HNEW IS AN EXACT SOLUTION.

 NO OUTPUT CONTROL FOR STRESS PERIOD   25   TIME STEP 1764

 -------------------------------------------------------------------------------
                             SWR1 OUTPUT PRINT TIMES
                        STRESS PERIOD   25   TIME STEP  1764
 --------------- --------------- --------------- --------------- ---------------
     0.29808E+06                                                                
 -------------------------------------------------------------------------------
 
 SOLVING FOR HEAD 
 INITIAL HNEW IS AN EXACT SOLUTION.

 NO OUTPUT CONTROL FOR STRESS PERIOD   25   TIME STEP 1765

 -------------------------------------------------------------------------------
                             SWR1 OUTPUT PRINT TIMES
                        STRESS PERIOD   25   TIME STEP  1765
 --------------- --------------- --------------- --------------- ---------------
     0.29820E+06                                                                
 -------------------------------------------------------------------------------
 
 SOLVING FOR HEAD 
 INITIAL HNEW IS AN EXACT SOLUTION.

 NO OUTPUT CONTROL FOR STRESS PERIOD   25   TIME STEP 1766

 -------------------------------------------------------------------------------
                             SWR1 OUTPUT PRINT TIMES
                        STRESS PERIOD   25   TIME STEP  1766
 --------------- --------------- --------------- --------------- ---------------
     0.29832E+06                                                                
 -------------------------------------------------------------------------------
 
 SOLVING FOR HEAD 
 INITIAL HNEW IS AN EXACT SOLUTION.

 NO OUTPUT CONTROL FOR STRESS PERIOD   25   TIME STEP 1767

 -------------------------------------------------------------------------------
                             SWR1 OUTPUT PRINT TIMES
                        STRESS PERIOD   25   TIME STEP  1767
 --------------- --------------- --------------- --------------- ---------------
     0.29844E+06                                                                
 -------------------------------------------------------------------------------
 
 SOLVING FOR HEAD 
 INITIAL HNEW IS AN EXACT SOLUTION.

 NO OUTPUT CONTROL FOR STRESS PERIOD   25   TIME STEP 1768

 -------------------------------------------------------------------------------
                             SWR1 OUTPUT PRINT TIMES
                        STRESS PERIOD   25   TIME STEP  1768
 --------------- --------------- --------------- --------------- ---------------
     0.29856E+06                                                                
 -------------------------------------------------------------------------------
 
 SOLVING FOR HEAD 
 INITIAL HNEW IS AN EXACT SOLUTION.

 NO OUTPUT CONTROL FOR STRESS PERIOD   25   TIME STEP 1769

 -------------------------------------------------------------------------------
                             SWR1 OUTPUT PRINT TIMES
                        STRESS PERIOD   25   TIME STEP  1769
 --------------- --------------- --------------- --------------- ---------------
     0.29868E+06                                                                
 -------------------------------------------------------------------------------
 
 SOLVING FOR HEAD 
 INITIAL HNEW IS AN EXACT SOLUTION.

 NO OUTPUT CONTROL FOR STRESS PERIOD   25   TIME STEP 1770

 -------------------------------------------------------------------------------
                             SWR1 OUTPUT PRINT TIMES
                        STRESS PERIOD   25   TIME STEP  1770
 --------------- --------------- --------------- --------------- ---------------
     0.29880E+06                                                                
 -------------------------------------------------------------------------------
 
 SOLVING FOR HEAD 
 INITIAL HNEW IS AN EXACT SOLUTION.

 NO OUTPUT CONTROL FOR STRESS PERIOD   25   TIME STEP 1771

 -------------------------------------------------------------------------------
                             SWR1 OUTPUT PRINT TIMES
                        STRESS PERIOD   25   TIME STEP  1771
 --------------- --------------- --------------- --------------- ---------------
     0.29892E+06                                                                
 -------------------------------------------------------------------------------
 
 SOLVING FOR HEAD 
 INITIAL HNEW IS AN EXACT SOLUTION.

 NO OUTPUT CONTROL FOR STRESS PERIOD   25   TIME STEP 1772

 -------------------------------------------------------------------------------
                             SWR1 OUTPUT PRINT TIMES
                        STRESS PERIOD   25   TIME STEP  1772
 --------------- --------------- --------------- --------------- ---------------
     0.29904E+06                                                                
 -------------------------------------------------------------------------------
 
 SOLVING FOR HEAD 
 INITIAL HNEW IS AN EXACT SOLUTION.

 NO OUTPUT CONTROL FOR STRESS PERIOD   25   TIME STEP 1773

 -------------------------------------------------------------------------------
                             SWR1 OUTPUT PRINT TIMES
                        STRESS PERIOD   25   TIME STEP  1773
 --------------- --------------- --------------- --------------- ---------------
     0.29916E+06                                                                
 -------------------------------------------------------------------------------
 
 SOLVING FOR HEAD 
 INITIAL HNEW IS AN EXACT SOLUTION.

 NO OUTPUT CONTROL FOR STRESS PERIOD   25   TIME STEP 1774

 -------------------------------------------------------------------------------
                             SWR1 OUTPUT PRINT TIMES
                        STRESS PERIOD   25   TIME STEP  1774
 --------------- --------------- --------------- --------------- ---------------
     0.29928E+06                                                                
 -------------------------------------------------------------------------------
 
 SOLVING FOR HEAD 
 INITIAL HNEW IS AN EXACT SOLUTION.

 NO OUTPUT CONTROL FOR STRESS PERIOD   25   TIME STEP 1775

 -------------------------------------------------------------------------------
                             SWR1 OUTPUT PRINT TIMES
                        STRESS PERIOD   25   TIME STEP  1775
 --------------- --------------- --------------- --------------- ---------------
     0.29940E+06                                                                
 -------------------------------------------------------------------------------
 
 SOLVING FOR HEAD 
 INITIAL HNEW IS AN EXACT SOLUTION.

 NO OUTPUT CONTROL FOR STRESS PERIOD   25   TIME STEP 1776

 -------------------------------------------------------------------------------
                             SWR1 OUTPUT PRINT TIMES
                        STRESS PERIOD   25   TIME STEP  1776
 --------------- --------------- --------------- --------------- ---------------
     0.29952E+06                                                                
 -------------------------------------------------------------------------------
 
 SOLVING FOR HEAD 
 INITIAL HNEW IS AN EXACT SOLUTION.

 NO OUTPUT CONTROL FOR STRESS PERIOD   25   TIME STEP 1777

 -------------------------------------------------------------------------------
                             SWR1 OUTPUT PRINT TIMES
                        STRESS PERIOD   25   TIME STEP  1777
 --------------- --------------- --------------- --------------- ---------------
     0.29964E+06                                                                
 -------------------------------------------------------------------------------
 
 SOLVING FOR HEAD 
 INITIAL HNEW IS AN EXACT SOLUTION.

 NO OUTPUT CONTROL FOR STRESS PERIOD   25   TIME STEP 1778

 -------------------------------------------------------------------------------
                             SWR1 OUTPUT PRINT TIMES
                        STRESS PERIOD   25   TIME STEP  1778
 --------------- --------------- --------------- --------------- ---------------
     0.29976E+06                                                                
 -------------------------------------------------------------------------------
 
 SOLVING FOR HEAD 
 INITIAL HNEW IS AN EXACT SOLUTION.

 NO OUTPUT CONTROL FOR STRESS PERIOD   25   TIME STEP 1779

 -------------------------------------------------------------------------------
                             SWR1 OUTPUT PRINT TIMES
                        STRESS PERIOD   25   TIME STEP  1779
 --------------- --------------- --------------- --------------- ---------------
     0.29988E+06                                                                
 -------------------------------------------------------------------------------
 
 SOLVING FOR HEAD 
 INITIAL HNEW IS AN EXACT SOLUTION.

 NO OUTPUT CONTROL FOR STRESS PERIOD   25   TIME STEP 1780

 -------------------------------------------------------------------------------
                             SWR1 OUTPUT PRINT TIMES
                        STRESS PERIOD   25   TIME STEP  1780
 --------------- --------------- --------------- --------------- ---------------
     0.30000E+06                                                                
 -------------------------------------------------------------------------------
 
 SOLVING FOR HEAD 
 INITIAL HNEW IS AN EXACT SOLUTION.

 NO OUTPUT CONTROL FOR STRESS PERIOD   25   TIME STEP 1781

 -------------------------------------------------------------------------------
                             SWR1 OUTPUT PRINT TIMES
                        STRESS PERIOD   25   TIME STEP  1781
 --------------- --------------- --------------- --------------- ---------------
     0.30012E+06                                                                
 -------------------------------------------------------------------------------
 
 SOLVING FOR HEAD 
 INITIAL HNEW IS AN EXACT SOLUTION.

 NO OUTPUT CONTROL FOR STRESS PERIOD   25   TIME STEP 1782

 -------------------------------------------------------------------------------
                             SWR1 OUTPUT PRINT TIMES
                        STRESS PERIOD   25   TIME STEP  1782
 --------------- --------------- --------------- --------------- ---------------
     0.30024E+06                                                                
 -------------------------------------------------------------------------------
 
 SOLVING FOR HEAD 
 INITIAL HNEW IS AN EXACT SOLUTION.

 NO OUTPUT CONTROL FOR STRESS PERIOD   25   TIME STEP 1783

 -------------------------------------------------------------------------------
                             SWR1 OUTPUT PRINT TIMES
                        STRESS PERIOD   25   TIME STEP  1783
 --------------- --------------- --------------- --------------- ---------------
     0.30036E+06                                                                
 -------------------------------------------------------------------------------
 
 SOLVING FOR HEAD 
 INITIAL HNEW IS AN EXACT SOLUTION.

 NO OUTPUT CONTROL FOR STRESS PERIOD   25   TIME STEP 1784

 -------------------------------------------------------------------------------
                             SWR1 OUTPUT PRINT TIMES
                        STRESS PERIOD   25   TIME STEP  1784
 --------------- --------------- --------------- --------------- ---------------
     0.30048E+06                                                                
 -------------------------------------------------------------------------------
 
 SOLVING FOR HEAD 
 INITIAL HNEW IS AN EXACT SOLUTION.

 NO OUTPUT CONTROL FOR STRESS PERIOD   25   TIME STEP 1785

 -------------------------------------------------------------------------------
                             SWR1 OUTPUT PRINT TIMES
                        STRESS PERIOD   25   TIME STEP  1785
 --------------- --------------- --------------- --------------- ---------------
     0.30060E+06                                                                
 -------------------------------------------------------------------------------
 
 SOLVING FOR HEAD 
 INITIAL HNEW IS AN EXACT SOLUTION.

 NO OUTPUT CONTROL FOR STRESS PERIOD   25   TIME STEP 1786

 -------------------------------------------------------------------------------
                             SWR1 OUTPUT PRINT TIMES
                        STRESS PERIOD   25   TIME STEP  1786
 --------------- --------------- --------------- --------------- ---------------
     0.30072E+06                                                                
 -------------------------------------------------------------------------------
 
 SOLVING FOR HEAD 
 INITIAL HNEW IS AN EXACT SOLUTION.

 NO OUTPUT CONTROL FOR STRESS PERIOD   25   TIME STEP 1787

 -------------------------------------------------------------------------------
                             SWR1 OUTPUT PRINT TIMES
                        STRESS PERIOD   25   TIME STEP  1787
 --------------- --------------- --------------- --------------- ---------------
     0.30084E+06                                                                
 -------------------------------------------------------------------------------
 
 SOLVING FOR HEAD 
 INITIAL HNEW IS AN EXACT SOLUTION.

 NO OUTPUT CONTROL FOR STRESS PERIOD   25   TIME STEP 1788

 -------------------------------------------------------------------------------
                             SWR1 OUTPUT PRINT TIMES
                        STRESS PERIOD   25   TIME STEP  1788
 --------------- --------------- --------------- --------------- ---------------
     0.30096E+06                                                                
 -------------------------------------------------------------------------------
 
 SOLVING FOR HEAD 
 INITIAL HNEW IS AN EXACT SOLUTION.

 NO OUTPUT CONTROL FOR STRESS PERIOD   25   TIME STEP 1789

 -------------------------------------------------------------------------------
                             SWR1 OUTPUT PRINT TIMES
                        STRESS PERIOD   25   TIME STEP  1789
 --------------- --------------- --------------- --------------- ---------------
     0.30108E+06                                                                
 -------------------------------------------------------------------------------
 
 SOLVING FOR HEAD 
 INITIAL HNEW IS AN EXACT SOLUTION.

 NO OUTPUT CONTROL FOR STRESS PERIOD   25   TIME STEP 1790

 -------------------------------------------------------------------------------
                             SWR1 OUTPUT PRINT TIMES
                        STRESS PERIOD   25   TIME STEP  1790
 --------------- --------------- --------------- --------------- ---------------
     0.30120E+06                                                                
 -------------------------------------------------------------------------------
 
 SOLVING FOR HEAD 
 INITIAL HNEW IS AN EXACT SOLUTION.

 NO OUTPUT CONTROL FOR STRESS PERIOD   25   TIME STEP 1791

 -------------------------------------------------------------------------------
                             SWR1 OUTPUT PRINT TIMES
                        STRESS PERIOD   25   TIME STEP  1791
 --------------- --------------- --------------- --------------- ---------------
     0.30132E+06                                                                
 -------------------------------------------------------------------------------
 
 SOLVING FOR HEAD 
 INITIAL HNEW IS AN EXACT SOLUTION.

 NO OUTPUT CONTROL FOR STRESS PERIOD   25   TIME STEP 1792

 -------------------------------------------------------------------------------
                             SWR1 OUTPUT PRINT TIMES
                        STRESS PERIOD   25   TIME STEP  1792
 --------------- --------------- --------------- --------------- ---------------
     0.30144E+06                                                                
 -------------------------------------------------------------------------------
 
 SOLVING FOR HEAD 
 INITIAL HNEW IS AN EXACT SOLUTION.

 NO OUTPUT CONTROL FOR STRESS PERIOD   25   TIME STEP 1793

 -------------------------------------------------------------------------------
                             SWR1 OUTPUT PRINT TIMES
                        STRESS PERIOD   25   TIME STEP  1793
 --------------- --------------- --------------- --------------- ---------------
     0.30156E+06                                                                
 -------------------------------------------------------------------------------
 
 SOLVING FOR HEAD 
 INITIAL HNEW IS AN EXACT SOLUTION.

 NO OUTPUT CONTROL FOR STRESS PERIOD   25   TIME STEP 1794

 -------------------------------------------------------------------------------
                             SWR1 OUTPUT PRINT TIMES
                        STRESS PERIOD   25   TIME STEP  1794
 --------------- --------------- --------------- --------------- ---------------
     0.30168E+06                                                                
 -------------------------------------------------------------------------------
 
 SOLVING FOR HEAD 
 INITIAL HNEW IS AN EXACT SOLUTION.

 NO OUTPUT CONTROL FOR STRESS PERIOD   25   TIME STEP 1795

 -------------------------------------------------------------------------------
                             SWR1 OUTPUT PRINT TIMES
                        STRESS PERIOD   25   TIME STEP  1795
 --------------- --------------- --------------- --------------- ---------------
     0.30180E+06                                                                
 -------------------------------------------------------------------------------
 
 SOLVING FOR HEAD 
 INITIAL HNEW IS AN EXACT SOLUTION.

 NO OUTPUT CONTROL FOR STRESS PERIOD   25   TIME STEP 1796

 -------------------------------------------------------------------------------
                             SWR1 OUTPUT PRINT TIMES
                        STRESS PERIOD   25   TIME STEP  1796
 --------------- --------------- --------------- --------------- ---------------
     0.30192E+06                                                                
 -------------------------------------------------------------------------------
 
 SOLVING FOR HEAD 
 INITIAL HNEW IS AN EXACT SOLUTION.

 NO OUTPUT CONTROL FOR STRESS PERIOD   25   TIME STEP 1797

 -------------------------------------------------------------------------------
                             SWR1 OUTPUT PRINT TIMES
                        STRESS PERIOD   25   TIME STEP  1797
 --------------- --------------- --------------- --------------- ---------------
     0.30204E+06                                                                
 -------------------------------------------------------------------------------
 
 SOLVING FOR HEAD 
 INITIAL HNEW IS AN EXACT SOLUTION.

 NO OUTPUT CONTROL FOR STRESS PERIOD   25   TIME STEP 1798

 -------------------------------------------------------------------------------
                             SWR1 OUTPUT PRINT TIMES
                        STRESS PERIOD   25   TIME STEP  1798
 --------------- --------------- --------------- --------------- ---------------
     0.30216E+06                                                                
 -------------------------------------------------------------------------------
 
 SOLVING FOR HEAD 
 INITIAL HNEW IS AN EXACT SOLUTION.

 NO OUTPUT CONTROL FOR STRESS PERIOD   25   TIME STEP 1799

 -------------------------------------------------------------------------------
                             SWR1 OUTPUT PRINT TIMES
                        STRESS PERIOD   25   TIME STEP  1799
 --------------- --------------- --------------- --------------- ---------------
     0.30228E+06                                                                
 -------------------------------------------------------------------------------
 
 SOLVING FOR HEAD 
 INITIAL HNEW IS AN EXACT SOLUTION.

 NO OUTPUT CONTROL FOR STRESS PERIOD   25   TIME STEP 1800

 -------------------------------------------------------------------------------
                             SWR1 OUTPUT PRINT TIMES
                        STRESS PERIOD   25   TIME STEP  1800
 --------------- --------------- --------------- --------------- ---------------
     0.30240E+06                                                                
 -------------------------------------------------------------------------------
 
 SOLVING FOR HEAD 
 INITIAL HNEW IS AN EXACT SOLUTION.

 NO OUTPUT CONTROL FOR STRESS PERIOD   25   TIME STEP 1801

 -------------------------------------------------------------------------------
                             SWR1 OUTPUT PRINT TIMES
                        STRESS PERIOD   25   TIME STEP  1801
 --------------- --------------- --------------- --------------- ---------------
     0.30252E+06                                                                
 -------------------------------------------------------------------------------
 
 SOLVING FOR HEAD 
 INITIAL HNEW IS AN EXACT SOLUTION.

 NO OUTPUT CONTROL FOR STRESS PERIOD   25   TIME STEP 1802

 -------------------------------------------------------------------------------
                             SWR1 OUTPUT PRINT TIMES
                        STRESS PERIOD   25   TIME STEP  1802
 --------------- --------------- --------------- --------------- ---------------
     0.30264E+06                                                                
 -------------------------------------------------------------------------------
 
 SOLVING FOR HEAD 
 INITIAL HNEW IS AN EXACT SOLUTION.

 NO OUTPUT CONTROL FOR STRESS PERIOD   25   TIME STEP 1803

 -------------------------------------------------------------------------------
                             SWR1 OUTPUT PRINT TIMES
                        STRESS PERIOD   25   TIME STEP  1803
 --------------- --------------- --------------- --------------- ---------------
     0.30276E+06                                                                
 -------------------------------------------------------------------------------
 
 SOLVING FOR HEAD 
 INITIAL HNEW IS AN EXACT SOLUTION.

 NO OUTPUT CONTROL FOR STRESS PERIOD   25   TIME STEP 1804

 -------------------------------------------------------------------------------
                             SWR1 OUTPUT PRINT TIMES
                        STRESS PERIOD   25   TIME STEP  1804
 --------------- --------------- --------------- --------------- ---------------
     0.30288E+06                                                                
 -------------------------------------------------------------------------------
 
 SOLVING FOR HEAD 
 INITIAL HNEW IS AN EXACT SOLUTION.

 NO OUTPUT CONTROL FOR STRESS PERIOD   25   TIME STEP 1805

 -------------------------------------------------------------------------------
                             SWR1 OUTPUT PRINT TIMES
                        STRESS PERIOD   25   TIME STEP  1805
 --------------- --------------- --------------- --------------- ---------------
     0.30300E+06                                                                
 -------------------------------------------------------------------------------
 
 SOLVING FOR HEAD 
 INITIAL HNEW IS AN EXACT SOLUTION.

 NO OUTPUT CONTROL FOR STRESS PERIOD   25   TIME STEP 1806

 -------------------------------------------------------------------------------
                             SWR1 OUTPUT PRINT TIMES
                        STRESS PERIOD   25   TIME STEP  1806
 --------------- --------------- --------------- --------------- ---------------
     0.30312E+06                                                                
 -------------------------------------------------------------------------------
 
 SOLVING FOR HEAD 
 INITIAL HNEW IS AN EXACT SOLUTION.

 NO OUTPUT CONTROL FOR STRESS PERIOD   25   TIME STEP 1807

 -------------------------------------------------------------------------------
                             SWR1 OUTPUT PRINT TIMES
                        STRESS PERIOD   25   TIME STEP  1807
 --------------- --------------- --------------- --------------- ---------------
     0.30324E+06                                                                
 -------------------------------------------------------------------------------
 
 SOLVING FOR HEAD 
 INITIAL HNEW IS AN EXACT SOLUTION.

 NO OUTPUT CONTROL FOR STRESS PERIOD   25   TIME STEP 1808

 -------------------------------------------------------------------------------
                             SWR1 OUTPUT PRINT TIMES
                        STRESS PERIOD   25   TIME STEP  1808
 --------------- --------------- --------------- --------------- ---------------
     0.30336E+06                                                                
 -------------------------------------------------------------------------------
 
 SOLVING FOR HEAD 
 INITIAL HNEW IS AN EXACT SOLUTION.

 NO OUTPUT CONTROL FOR STRESS PERIOD   25   TIME STEP 1809

 -------------------------------------------------------------------------------
                             SWR1 OUTPUT PRINT TIMES
                        STRESS PERIOD   25   TIME STEP  1809
 --------------- --------------- --------------- --------------- ---------------
     0.30348E+06                                                                
 -------------------------------------------------------------------------------
 
 SOLVING FOR HEAD 
 INITIAL HNEW IS AN EXACT SOLUTION.

 NO OUTPUT CONTROL FOR STRESS PERIOD   25   TIME STEP 1810

 -------------------------------------------------------------------------------
                             SWR1 OUTPUT PRINT TIMES
                        STRESS PERIOD   25   TIME STEP  1810
 --------------- --------------- --------------- --------------- ---------------
     0.30360E+06                                                                
 -------------------------------------------------------------------------------
 
 SOLVING FOR HEAD 
 INITIAL HNEW IS AN EXACT SOLUTION.

 NO OUTPUT CONTROL FOR STRESS PERIOD   25   TIME STEP 1811

 -------------------------------------------------------------------------------
                             SWR1 OUTPUT PRINT TIMES
                        STRESS PERIOD   25   TIME STEP  1811
 --------------- --------------- --------------- --------------- ---------------
     0.30372E+06                                                                
 -------------------------------------------------------------------------------
 
 SOLVING FOR HEAD 
 INITIAL HNEW IS AN EXACT SOLUTION.

 NO OUTPUT CONTROL FOR STRESS PERIOD   25   TIME STEP 1812

 -------------------------------------------------------------------------------
                             SWR1 OUTPUT PRINT TIMES
                        STRESS PERIOD   25   TIME STEP  1812
 --------------- --------------- --------------- --------------- ---------------
     0.30384E+06                                                                
 -------------------------------------------------------------------------------
 
 SOLVING FOR HEAD 
 INITIAL HNEW IS AN EXACT SOLUTION.

 NO OUTPUT CONTROL FOR STRESS PERIOD   25   TIME STEP 1813

 -------------------------------------------------------------------------------
                             SWR1 OUTPUT PRINT TIMES
                        STRESS PERIOD   25   TIME STEP  1813
 --------------- --------------- --------------- --------------- ---------------
     0.30396E+06                                                                
 -------------------------------------------------------------------------------
 
 SOLVING FOR HEAD 
 INITIAL HNEW IS AN EXACT SOLUTION.

 NO OUTPUT CONTROL FOR STRESS PERIOD   25   TIME STEP 1814

 -------------------------------------------------------------------------------
                             SWR1 OUTPUT PRINT TIMES
                        STRESS PERIOD   25   TIME STEP  1814
 --------------- --------------- --------------- --------------- ---------------
     0.30408E+06                                                                
 -------------------------------------------------------------------------------
 
 SOLVING FOR HEAD 
 INITIAL HNEW IS AN EXACT SOLUTION.

 NO OUTPUT CONTROL FOR STRESS PERIOD   25   TIME STEP 1815

 -------------------------------------------------------------------------------
                             SWR1 OUTPUT PRINT TIMES
                        STRESS PERIOD   25   TIME STEP  1815
 --------------- --------------- --------------- --------------- ---------------
     0.30420E+06                                                                
 -------------------------------------------------------------------------------
 
 SOLVING FOR HEAD 
 INITIAL HNEW IS AN EXACT SOLUTION.

 NO OUTPUT CONTROL FOR STRESS PERIOD   25   TIME STEP 1816

 -------------------------------------------------------------------------------
                             SWR1 OUTPUT PRINT TIMES
                        STRESS PERIOD   25   TIME STEP  1816
 --------------- --------------- --------------- --------------- ---------------
     0.30432E+06                                                                
 -------------------------------------------------------------------------------
 
 SOLVING FOR HEAD 
 INITIAL HNEW IS AN EXACT SOLUTION.

 NO OUTPUT CONTROL FOR STRESS PERIOD   25   TIME STEP 1817

 -------------------------------------------------------------------------------
                             SWR1 OUTPUT PRINT TIMES
                        STRESS PERIOD   25   TIME STEP  1817
 --------------- --------------- --------------- --------------- ---------------
     0.30444E+06                                                                
 -------------------------------------------------------------------------------
 
 SOLVING FOR HEAD 
 INITIAL HNEW IS AN EXACT SOLUTION.

 NO OUTPUT CONTROL FOR STRESS PERIOD   25   TIME STEP 1818

 -------------------------------------------------------------------------------
                             SWR1 OUTPUT PRINT TIMES
                        STRESS PERIOD   25   TIME STEP  1818
 --------------- --------------- --------------- --------------- ---------------
     0.30456E+06                                                                
 -------------------------------------------------------------------------------
 
 SOLVING FOR HEAD 
 INITIAL HNEW IS AN EXACT SOLUTION.

 NO OUTPUT CONTROL FOR STRESS PERIOD   25   TIME STEP 1819

 -------------------------------------------------------------------------------
                             SWR1 OUTPUT PRINT TIMES
                        STRESS PERIOD   25   TIME STEP  1819
 --------------- --------------- --------------- --------------- ---------------
     0.30468E+06                                                                
 -------------------------------------------------------------------------------
 
 SOLVING FOR HEAD 
 INITIAL HNEW IS AN EXACT SOLUTION.

 NO OUTPUT CONTROL FOR STRESS PERIOD   25   TIME STEP 1820

 -------------------------------------------------------------------------------
                             SWR1 OUTPUT PRINT TIMES
                        STRESS PERIOD   25   TIME STEP  1820
 --------------- --------------- --------------- --------------- ---------------
     0.30480E+06                                                                
 -------------------------------------------------------------------------------
 
 SOLVING FOR HEAD 
 INITIAL HNEW IS AN EXACT SOLUTION.

 NO OUTPUT CONTROL FOR STRESS PERIOD   25   TIME STEP 1821

 -------------------------------------------------------------------------------
                             SWR1 OUTPUT PRINT TIMES
                        STRESS PERIOD   25   TIME STEP  1821
 --------------- --------------- --------------- --------------- ---------------
     0.30492E+06                                                                
 -------------------------------------------------------------------------------
 
 SOLVING FOR HEAD 
 INITIAL HNEW IS AN EXACT SOLUTION.

 NO OUTPUT CONTROL FOR STRESS PERIOD   25   TIME STEP 1822

 -------------------------------------------------------------------------------
                             SWR1 OUTPUT PRINT TIMES
                        STRESS PERIOD   25   TIME STEP  1822
 --------------- --------------- --------------- --------------- ---------------
     0.30504E+06                                                                
 -------------------------------------------------------------------------------
 
 SOLVING FOR HEAD 
 INITIAL HNEW IS AN EXACT SOLUTION.

 NO OUTPUT CONTROL FOR STRESS PERIOD   25   TIME STEP 1823

 -------------------------------------------------------------------------------
                             SWR1 OUTPUT PRINT TIMES
                        STRESS PERIOD   25   TIME STEP  1823
 --------------- --------------- --------------- --------------- ---------------
     0.30516E+06                                                                
 -------------------------------------------------------------------------------
 
 SOLVING FOR HEAD 
 INITIAL HNEW IS AN EXACT SOLUTION.

 NO OUTPUT CONTROL FOR STRESS PERIOD   25   TIME STEP 1824

 -------------------------------------------------------------------------------
                             SWR1 OUTPUT PRINT TIMES
                        STRESS PERIOD   25   TIME STEP  1824
 --------------- --------------- --------------- --------------- ---------------
     0.30528E+06                                                                
 -------------------------------------------------------------------------------
 
 SOLVING FOR HEAD 
 INITIAL HNEW IS AN EXACT SOLUTION.

 NO OUTPUT CONTROL FOR STRESS PERIOD   25   TIME STEP 1825

 -------------------------------------------------------------------------------
                             SWR1 OUTPUT PRINT TIMES
                        STRESS PERIOD   25   TIME STEP  1825
 --------------- --------------- --------------- --------------- ---------------
     0.30540E+06                                                                
 -------------------------------------------------------------------------------
 
 SOLVING FOR HEAD 
 INITIAL HNEW IS AN EXACT SOLUTION.

 NO OUTPUT CONTROL FOR STRESS PERIOD   25   TIME STEP 1826

 -------------------------------------------------------------------------------
                             SWR1 OUTPUT PRINT TIMES
                        STRESS PERIOD   25   TIME STEP  1826
 --------------- --------------- --------------- --------------- ---------------
     0.30552E+06                                                                
 -------------------------------------------------------------------------------
 
 SOLVING FOR HEAD 
 INITIAL HNEW IS AN EXACT SOLUTION.

 NO OUTPUT CONTROL FOR STRESS PERIOD   25   TIME STEP 1827

 -------------------------------------------------------------------------------
                             SWR1 OUTPUT PRINT TIMES
                        STRESS PERIOD   25   TIME STEP  1827
 --------------- --------------- --------------- --------------- ---------------
     0.30564E+06                                                                
 -------------------------------------------------------------------------------
 
 SOLVING FOR HEAD 
 INITIAL HNEW IS AN EXACT SOLUTION.

 NO OUTPUT CONTROL FOR STRESS PERIOD   25   TIME STEP 1828

 -------------------------------------------------------------------------------
                             SWR1 OUTPUT PRINT TIMES
                        STRESS PERIOD   25   TIME STEP  1828
 --------------- --------------- --------------- --------------- ---------------
     0.30576E+06                                                                
 -------------------------------------------------------------------------------
 
 SOLVING FOR HEAD 
 INITIAL HNEW IS AN EXACT SOLUTION.

 NO OUTPUT CONTROL FOR STRESS PERIOD   25   TIME STEP 1829

 -------------------------------------------------------------------------------
                             SWR1 OUTPUT PRINT TIMES
                        STRESS PERIOD   25   TIME STEP  1829
 --------------- --------------- --------------- --------------- ---------------
     0.30588E+06                                                                
 -------------------------------------------------------------------------------
 
 SOLVING FOR HEAD 
 INITIAL HNEW IS AN EXACT SOLUTION.

 NO OUTPUT CONTROL FOR STRESS PERIOD   25   TIME STEP 1830

 -------------------------------------------------------------------------------
                             SWR1 OUTPUT PRINT TIMES
                        STRESS PERIOD   25   TIME STEP  1830
 --------------- --------------- --------------- --------------- ---------------
     0.30600E+06                                                                
 -------------------------------------------------------------------------------
 
 SOLVING FOR HEAD 
 INITIAL HNEW IS AN EXACT SOLUTION.

 NO OUTPUT CONTROL FOR STRESS PERIOD   25   TIME STEP 1831

 -------------------------------------------------------------------------------
                             SWR1 OUTPUT PRINT TIMES
                        STRESS PERIOD   25   TIME STEP  1831
 --------------- --------------- --------------- --------------- ---------------
     0.30612E+06                                                                
 -------------------------------------------------------------------------------
 
 SOLVING FOR HEAD 
 INITIAL HNEW IS AN EXACT SOLUTION.

 NO OUTPUT CONTROL FOR STRESS PERIOD   25   TIME STEP 1832

 -------------------------------------------------------------------------------
                             SWR1 OUTPUT PRINT TIMES
                        STRESS PERIOD   25   TIME STEP  1832
 --------------- --------------- --------------- --------------- ---------------
     0.30624E+06                                                                
 -------------------------------------------------------------------------------
 
 SOLVING FOR HEAD 
 INITIAL HNEW IS AN EXACT SOLUTION.

 NO OUTPUT CONTROL FOR STRESS PERIOD   25   TIME STEP 1833

 -------------------------------------------------------------------------------
                             SWR1 OUTPUT PRINT TIMES
                        STRESS PERIOD   25   TIME STEP  1833
 --------------- --------------- --------------- --------------- ---------------
     0.30636E+06                                                                
 -------------------------------------------------------------------------------
 
 SOLVING FOR HEAD 
 INITIAL HNEW IS AN EXACT SOLUTION.

 NO OUTPUT CONTROL FOR STRESS PERIOD   25   TIME STEP 1834

 -------------------------------------------------------------------------------
                             SWR1 OUTPUT PRINT TIMES
                        STRESS PERIOD   25   TIME STEP  1834
 --------------- --------------- --------------- --------------- ---------------
     0.30648E+06                                                                
 -------------------------------------------------------------------------------
 
 SOLVING FOR HEAD 
 INITIAL HNEW IS AN EXACT SOLUTION.

 NO OUTPUT CONTROL FOR STRESS PERIOD   25   TIME STEP 1835

 -------------------------------------------------------------------------------
                             SWR1 OUTPUT PRINT TIMES
                        STRESS PERIOD   25   TIME STEP  1835
 --------------- --------------- --------------- --------------- ---------------
     0.30660E+06                                                                
 -------------------------------------------------------------------------------
 
 SOLVING FOR HEAD 
 INITIAL HNEW IS AN EXACT SOLUTION.

 NO OUTPUT CONTROL FOR STRESS PERIOD   25   TIME STEP 1836

 -------------------------------------------------------------------------------
                             SWR1 OUTPUT PRINT TIMES
                        STRESS PERIOD   25   TIME STEP  1836
 --------------- --------------- --------------- --------------- ---------------
     0.30672E+06                                                                
 -------------------------------------------------------------------------------
 
 SOLVING FOR HEAD 
 INITIAL HNEW IS AN EXACT SOLUTION.

 NO OUTPUT CONTROL FOR STRESS PERIOD   25   TIME STEP 1837

 -------------------------------------------------------------------------------
                             SWR1 OUTPUT PRINT TIMES
                        STRESS PERIOD   25   TIME STEP  1837
 --------------- --------------- --------------- --------------- ---------------
     0.30684E+06                                                                
 -------------------------------------------------------------------------------
 
 SOLVING FOR HEAD 
 INITIAL HNEW IS AN EXACT SOLUTION.

 NO OUTPUT CONTROL FOR STRESS PERIOD   25   TIME STEP 1838

 -------------------------------------------------------------------------------
                             SWR1 OUTPUT PRINT TIMES
                        STRESS PERIOD   25   TIME STEP  1838
 --------------- --------------- --------------- --------------- ---------------
     0.30696E+06                                                                
 -------------------------------------------------------------------------------
 
 SOLVING FOR HEAD 
 INITIAL HNEW IS AN EXACT SOLUTION.

 NO OUTPUT CONTROL FOR STRESS PERIOD   25   TIME STEP 1839

 -------------------------------------------------------------------------------
                             SWR1 OUTPUT PRINT TIMES
                        STRESS PERIOD   25   TIME STEP  1839
 --------------- --------------- --------------- --------------- ---------------
     0.30708E+06                                                                
 -------------------------------------------------------------------------------
 
 SOLVING FOR HEAD 
 INITIAL HNEW IS AN EXACT SOLUTION.

 NO OUTPUT CONTROL FOR STRESS PERIOD   25   TIME STEP 1840

 -------------------------------------------------------------------------------
                             SWR1 OUTPUT PRINT TIMES
                        STRESS PERIOD   25   TIME STEP  1840
 --------------- --------------- --------------- --------------- ---------------
     0.30720E+06                                                                
 -------------------------------------------------------------------------------
 
 SOLVING FOR HEAD 
 INITIAL HNEW IS AN EXACT SOLUTION.

 NO OUTPUT CONTROL FOR STRESS PERIOD   25   TIME STEP 1841

 -------------------------------------------------------------------------------
                             SWR1 OUTPUT PRINT TIMES
                        STRESS PERIOD   25   TIME STEP  1841
 --------------- --------------- --------------- --------------- ---------------
     0.30732E+06                                                                
 -------------------------------------------------------------------------------
 
 SOLVING FOR HEAD 
 INITIAL HNEW IS AN EXACT SOLUTION.

 NO OUTPUT CONTROL FOR STRESS PERIOD   25   TIME STEP 1842

 -------------------------------------------------------------------------------
                             SWR1 OUTPUT PRINT TIMES
                        STRESS PERIOD   25   TIME STEP  1842
 --------------- --------------- --------------- --------------- ---------------
     0.30744E+06                                                                
 -------------------------------------------------------------------------------
 
 SOLVING FOR HEAD 
 INITIAL HNEW IS AN EXACT SOLUTION.

 NO OUTPUT CONTROL FOR STRESS PERIOD   25   TIME STEP 1843

 -------------------------------------------------------------------------------
                             SWR1 OUTPUT PRINT TIMES
                        STRESS PERIOD   25   TIME STEP  1843
 --------------- --------------- --------------- --------------- ---------------
     0.30756E+06                                                                
 -------------------------------------------------------------------------------
 
 SOLVING FOR HEAD 
 INITIAL HNEW IS AN EXACT SOLUTION.

 NO OUTPUT CONTROL FOR STRESS PERIOD   25   TIME STEP 1844

 -------------------------------------------------------------------------------
                             SWR1 OUTPUT PRINT TIMES
                        STRESS PERIOD   25   TIME STEP  1844
 --------------- --------------- --------------- --------------- ---------------
     0.30768E+06                                                                
 -------------------------------------------------------------------------------
 
 SOLVING FOR HEAD 
 INITIAL HNEW IS AN EXACT SOLUTION.

 NO OUTPUT CONTROL FOR STRESS PERIOD   25   TIME STEP 1845

 -------------------------------------------------------------------------------
                             SWR1 OUTPUT PRINT TIMES
                        STRESS PERIOD   25   TIME STEP  1845
 --------------- --------------- --------------- --------------- ---------------
     0.30780E+06                                                                
 -------------------------------------------------------------------------------
 
 SOLVING FOR HEAD 
 INITIAL HNEW IS AN EXACT SOLUTION.

 NO OUTPUT CONTROL FOR STRESS PERIOD   25   TIME STEP 1846

 -------------------------------------------------------------------------------
                             SWR1 OUTPUT PRINT TIMES
                        STRESS PERIOD   25   TIME STEP  1846
 --------------- --------------- --------------- --------------- ---------------
     0.30792E+06                                                                
 -------------------------------------------------------------------------------
 
 SOLVING FOR HEAD 
 INITIAL HNEW IS AN EXACT SOLUTION.

 NO OUTPUT CONTROL FOR STRESS PERIOD   25   TIME STEP 1847

 -------------------------------------------------------------------------------
                             SWR1 OUTPUT PRINT TIMES
                        STRESS PERIOD   25   TIME STEP  1847
 --------------- --------------- --------------- --------------- ---------------
     0.30804E+06                                                                
 -------------------------------------------------------------------------------
 
 SOLVING FOR HEAD 
 INITIAL HNEW IS AN EXACT SOLUTION.

 NO OUTPUT CONTROL FOR STRESS PERIOD   25   TIME STEP 1848

 -------------------------------------------------------------------------------
                             SWR1 OUTPUT PRINT TIMES
                        STRESS PERIOD   25   TIME STEP  1848
 --------------- --------------- --------------- --------------- ---------------
     0.30816E+06                                                                
 -------------------------------------------------------------------------------
 
 SOLVING FOR HEAD 
 INITIAL HNEW IS AN EXACT SOLUTION.

 NO OUTPUT CONTROL FOR STRESS PERIOD   25   TIME STEP 1849

 -------------------------------------------------------------------------------
                             SWR1 OUTPUT PRINT TIMES
                        STRESS PERIOD   25   TIME STEP  1849
 --------------- --------------- --------------- --------------- ---------------
     0.30828E+06                                                                
 -------------------------------------------------------------------------------
 
 SOLVING FOR HEAD 
 INITIAL HNEW IS AN EXACT SOLUTION.

 NO OUTPUT CONTROL FOR STRESS PERIOD   25   TIME STEP 1850

 -------------------------------------------------------------------------------
                             SWR1 OUTPUT PRINT TIMES
                        STRESS PERIOD   25   TIME STEP  1850
 --------------- --------------- --------------- --------------- ---------------
     0.30840E+06                                                                
 -------------------------------------------------------------------------------
 
 SOLVING FOR HEAD 
 INITIAL HNEW IS AN EXACT SOLUTION.

 NO OUTPUT CONTROL FOR STRESS PERIOD   25   TIME STEP 1851

 -------------------------------------------------------------------------------
                             SWR1 OUTPUT PRINT TIMES
                        STRESS PERIOD   25   TIME STEP  1851
 --------------- --------------- --------------- --------------- ---------------
     0.30852E+06                                                                
 -------------------------------------------------------------------------------
 
 SOLVING FOR HEAD 
 INITIAL HNEW IS AN EXACT SOLUTION.

 NO OUTPUT CONTROL FOR STRESS PERIOD   25   TIME STEP 1852

 -------------------------------------------------------------------------------
                             SWR1 OUTPUT PRINT TIMES
                        STRESS PERIOD   25   TIME STEP  1852
 --------------- --------------- --------------- --------------- ---------------
     0.30864E+06                                                                
 -------------------------------------------------------------------------------
 
 SOLVING FOR HEAD 
 INITIAL HNEW IS AN EXACT SOLUTION.

 NO OUTPUT CONTROL FOR STRESS PERIOD   25   TIME STEP 1853

 -------------------------------------------------------------------------------
                             SWR1 OUTPUT PRINT TIMES
                        STRESS PERIOD   25   TIME STEP  1853
 --------------- --------------- --------------- --------------- ---------------
     0.30876E+06                                                                
 -------------------------------------------------------------------------------
 
 SOLVING FOR HEAD 
 INITIAL HNEW IS AN EXACT SOLUTION.

 NO OUTPUT CONTROL FOR STRESS PERIOD   25   TIME STEP 1854

 -------------------------------------------------------------------------------
                             SWR1 OUTPUT PRINT TIMES
                        STRESS PERIOD   25   TIME STEP  1854
 --------------- --------------- --------------- --------------- ---------------
     0.30888E+06                                                                
 -------------------------------------------------------------------------------
 
 SOLVING FOR HEAD 
 INITIAL HNEW IS AN EXACT SOLUTION.

 NO OUTPUT CONTROL FOR STRESS PERIOD   25   TIME STEP 1855

 -------------------------------------------------------------------------------
                             SWR1 OUTPUT PRINT TIMES
                        STRESS PERIOD   25   TIME STEP  1855
 --------------- --------------- --------------- --------------- ---------------
     0.30900E+06                                                                
 -------------------------------------------------------------------------------
 
 SOLVING FOR HEAD 
 INITIAL HNEW IS AN EXACT SOLUTION.

 NO OUTPUT CONTROL FOR STRESS PERIOD   25   TIME STEP 1856

 -------------------------------------------------------------------------------
                             SWR1 OUTPUT PRINT TIMES
                        STRESS PERIOD   25   TIME STEP  1856
 --------------- --------------- --------------- --------------- ---------------
     0.30912E+06                                                                
 -------------------------------------------------------------------------------
 
 SOLVING FOR HEAD 
 INITIAL HNEW IS AN EXACT SOLUTION.

 NO OUTPUT CONTROL FOR STRESS PERIOD   25   TIME STEP 1857

 -------------------------------------------------------------------------------
                             SWR1 OUTPUT PRINT TIMES
                        STRESS PERIOD   25   TIME STEP  1857
 --------------- --------------- --------------- --------------- ---------------
     0.30924E+06                                                                
 -------------------------------------------------------------------------------
 
 SOLVING FOR HEAD 
 INITIAL HNEW IS AN EXACT SOLUTION.

 NO OUTPUT CONTROL FOR STRESS PERIOD   25   TIME STEP 1858

 -------------------------------------------------------------------------------
                             SWR1 OUTPUT PRINT TIMES
                        STRESS PERIOD   25   TIME STEP  1858
 --------------- --------------- --------------- --------------- ---------------
     0.30936E+06                                                                
 -------------------------------------------------------------------------------
 
 SOLVING FOR HEAD 
 INITIAL HNEW IS AN EXACT SOLUTION.

 NO OUTPUT CONTROL FOR STRESS PERIOD   25   TIME STEP 1859

 -------------------------------------------------------------------------------
                             SWR1 OUTPUT PRINT TIMES
                        STRESS PERIOD   25   TIME STEP  1859
 --------------- --------------- --------------- --------------- ---------------
     0.30948E+06                                                                
 -------------------------------------------------------------------------------
 
 SOLVING FOR HEAD 
 INITIAL HNEW IS AN EXACT SOLUTION.

 NO OUTPUT CONTROL FOR STRESS PERIOD   25   TIME STEP 1860

 -------------------------------------------------------------------------------
                             SWR1 OUTPUT PRINT TIMES
                        STRESS PERIOD   25   TIME STEP  1860
 --------------- --------------- --------------- --------------- ---------------
     0.30960E+06                                                                
 -------------------------------------------------------------------------------
 
 SOLVING FOR HEAD 
 INITIAL HNEW IS AN EXACT SOLUTION.

 NO OUTPUT CONTROL FOR STRESS PERIOD   25   TIME STEP 1861

 -------------------------------------------------------------------------------
                             SWR1 OUTPUT PRINT TIMES
                        STRESS PERIOD   25   TIME STEP  1861
 --------------- --------------- --------------- --------------- ---------------
     0.30972E+06                                                                
 -------------------------------------------------------------------------------
 
 SOLVING FOR HEAD 
 INITIAL HNEW IS AN EXACT SOLUTION.

 NO OUTPUT CONTROL FOR STRESS PERIOD   25   TIME STEP 1862

 -------------------------------------------------------------------------------
                             SWR1 OUTPUT PRINT TIMES
                        STRESS PERIOD   25   TIME STEP  1862
 --------------- --------------- --------------- --------------- ---------------
     0.30984E+06                                                                
 -------------------------------------------------------------------------------
 
 SOLVING FOR HEAD 
 INITIAL HNEW IS AN EXACT SOLUTION.

 NO OUTPUT CONTROL FOR STRESS PERIOD   25   TIME STEP 1863

 -------------------------------------------------------------------------------
                             SWR1 OUTPUT PRINT TIMES
                        STRESS PERIOD   25   TIME STEP  1863
 --------------- --------------- --------------- --------------- ---------------
     0.30996E+06                                                                
 -------------------------------------------------------------------------------
 
 SOLVING FOR HEAD 
 INITIAL HNEW IS AN EXACT SOLUTION.

 NO OUTPUT CONTROL FOR STRESS PERIOD   25   TIME STEP 1864

 -------------------------------------------------------------------------------
                             SWR1 OUTPUT PRINT TIMES
                        STRESS PERIOD   25   TIME STEP  1864
 --------------- --------------- --------------- --------------- ---------------
     0.31008E+06                                                                
 -------------------------------------------------------------------------------
 
 SOLVING FOR HEAD 
 INITIAL HNEW IS AN EXACT SOLUTION.

 NO OUTPUT CONTROL FOR STRESS PERIOD   25   TIME STEP 1865

 -------------------------------------------------------------------------------
                             SWR1 OUTPUT PRINT TIMES
                        STRESS PERIOD   25   TIME STEP  1865
 --------------- --------------- --------------- --------------- ---------------
     0.31020E+06                                                                
 -------------------------------------------------------------------------------
 
 SOLVING FOR HEAD 
 INITIAL HNEW IS AN EXACT SOLUTION.

 NO OUTPUT CONTROL FOR STRESS PERIOD   25   TIME STEP 1866

 -------------------------------------------------------------------------------
                             SWR1 OUTPUT PRINT TIMES
                        STRESS PERIOD   25   TIME STEP  1866
 --------------- --------------- --------------- --------------- ---------------
     0.31032E+06                                                                
 -------------------------------------------------------------------------------
 
 SOLVING FOR HEAD 
 INITIAL HNEW IS AN EXACT SOLUTION.

 NO OUTPUT CONTROL FOR STRESS PERIOD   25   TIME STEP 1867

 -------------------------------------------------------------------------------
                             SWR1 OUTPUT PRINT TIMES
                        STRESS PERIOD   25   TIME STEP  1867
 --------------- --------------- --------------- --------------- ---------------
     0.31044E+06                                                                
 -------------------------------------------------------------------------------
 
 SOLVING FOR HEAD 
 INITIAL HNEW IS AN EXACT SOLUTION.

 NO OUTPUT CONTROL FOR STRESS PERIOD   25   TIME STEP 1868

 -------------------------------------------------------------------------------
                             SWR1 OUTPUT PRINT TIMES
                        STRESS PERIOD   25   TIME STEP  1868
 --------------- --------------- --------------- --------------- ---------------
     0.31056E+06                                                                
 -------------------------------------------------------------------------------
 
 SOLVING FOR HEAD 
 INITIAL HNEW IS AN EXACT SOLUTION.

 NO OUTPUT CONTROL FOR STRESS PERIOD   25   TIME STEP 1869

 -------------------------------------------------------------------------------
                             SWR1 OUTPUT PRINT TIMES
                        STRESS PERIOD   25   TIME STEP  1869
 --------------- --------------- --------------- --------------- ---------------
     0.31068E+06                                                                
 -------------------------------------------------------------------------------
 
 SOLVING FOR HEAD 
 INITIAL HNEW IS AN EXACT SOLUTION.

 NO OUTPUT CONTROL FOR STRESS PERIOD   25   TIME STEP 1870

 -------------------------------------------------------------------------------
                             SWR1 OUTPUT PRINT TIMES
                        STRESS PERIOD   25   TIME STEP  1870
 --------------- --------------- --------------- --------------- ---------------
     0.31080E+06                                                                
 -------------------------------------------------------------------------------
 
 SOLVING FOR HEAD 
 INITIAL HNEW IS AN EXACT SOLUTION.

 NO OUTPUT CONTROL FOR STRESS PERIOD   25   TIME STEP 1871

 -------------------------------------------------------------------------------
                             SWR1 OUTPUT PRINT TIMES
                        STRESS PERIOD   25   TIME STEP  1871
 --------------- --------------- --------------- --------------- ---------------
     0.31092E+06                                                                
 -------------------------------------------------------------------------------
 
 SOLVING FOR HEAD 
 INITIAL HNEW IS AN EXACT SOLUTION.

 NO OUTPUT CONTROL FOR STRESS PERIOD   25   TIME STEP 1872

 -------------------------------------------------------------------------------
                             SWR1 OUTPUT PRINT TIMES
                        STRESS PERIOD   25   TIME STEP  1872
 --------------- --------------- --------------- --------------- ---------------
     0.31104E+06                                                                
 -------------------------------------------------------------------------------
 
 SOLVING FOR HEAD 
 INITIAL HNEW IS AN EXACT SOLUTION.

 NO OUTPUT CONTROL FOR STRESS PERIOD   25   TIME STEP 1873

 -------------------------------------------------------------------------------
                             SWR1 OUTPUT PRINT TIMES
                        STRESS PERIOD   25   TIME STEP  1873
 --------------- --------------- --------------- --------------- ---------------
     0.31116E+06                                                                
 -------------------------------------------------------------------------------
 
 SOLVING FOR HEAD 
 INITIAL HNEW IS AN EXACT SOLUTION.

 NO OUTPUT CONTROL FOR STRESS PERIOD   25   TIME STEP 1874

 -------------------------------------------------------------------------------
                             SWR1 OUTPUT PRINT TIMES
                        STRESS PERIOD   25   TIME STEP  1874
 --------------- --------------- --------------- --------------- ---------------
     0.31128E+06                                                                
 -------------------------------------------------------------------------------
 
 SOLVING FOR HEAD 
 INITIAL HNEW IS AN EXACT SOLUTION.

 NO OUTPUT CONTROL FOR STRESS PERIOD   25   TIME STEP 1875

 -------------------------------------------------------------------------------
                             SWR1 OUTPUT PRINT TIMES
                        STRESS PERIOD   25   TIME STEP  1875
 --------------- --------------- --------------- --------------- ---------------
     0.31140E+06                                                                
 -------------------------------------------------------------------------------
 
 SOLVING FOR HEAD 
 INITIAL HNEW IS AN EXACT SOLUTION.

 NO OUTPUT CONTROL FOR STRESS PERIOD   25   TIME STEP 1876

 -------------------------------------------------------------------------------
                             SWR1 OUTPUT PRINT TIMES
                        STRESS PERIOD   25   TIME STEP  1876
 --------------- --------------- --------------- --------------- ---------------
     0.31152E+06                                                                
 -------------------------------------------------------------------------------
 
 SOLVING FOR HEAD 
 INITIAL HNEW IS AN EXACT SOLUTION.

 NO OUTPUT CONTROL FOR STRESS PERIOD   25   TIME STEP 1877

 -------------------------------------------------------------------------------
                             SWR1 OUTPUT PRINT TIMES
                        STRESS PERIOD   25   TIME STEP  1877
 --------------- --------------- --------------- --------------- ---------------
     0.31164E+06                                                                
 -------------------------------------------------------------------------------
 
 SOLVING FOR HEAD 
 INITIAL HNEW IS AN EXACT SOLUTION.

 NO OUTPUT CONTROL FOR STRESS PERIOD   25   TIME STEP 1878

 -------------------------------------------------------------------------------
                             SWR1 OUTPUT PRINT TIMES
                        STRESS PERIOD   25   TIME STEP  1878
 --------------- --------------- --------------- --------------- ---------------
     0.31176E+06                                                                
 -------------------------------------------------------------------------------
 
 SOLVING FOR HEAD 
 INITIAL HNEW IS AN EXACT SOLUTION.

 NO OUTPUT CONTROL FOR STRESS PERIOD   25   TIME STEP 1879

 -------------------------------------------------------------------------------
                             SWR1 OUTPUT PRINT TIMES
                        STRESS PERIOD   25   TIME STEP  1879
 --------------- --------------- --------------- --------------- ---------------
     0.31188E+06                                                                
 -------------------------------------------------------------------------------
 
 SOLVING FOR HEAD 
 INITIAL HNEW IS AN EXACT SOLUTION.

 NO OUTPUT CONTROL FOR STRESS PERIOD   25   TIME STEP 1880

 -------------------------------------------------------------------------------
                             SWR1 OUTPUT PRINT TIMES
                        STRESS PERIOD   25   TIME STEP  1880
 --------------- --------------- --------------- --------------- ---------------
     0.31200E+06                                                                
 -------------------------------------------------------------------------------
 
 SOLVING FOR HEAD 
 INITIAL HNEW IS AN EXACT SOLUTION.

 NO OUTPUT CONTROL FOR STRESS PERIOD   25   TIME STEP 1881

 -------------------------------------------------------------------------------
                             SWR1 OUTPUT PRINT TIMES
                        STRESS PERIOD   25   TIME STEP  1881
 --------------- --------------- --------------- --------------- ---------------
     0.31212E+06                                                                
 -------------------------------------------------------------------------------
 
 SOLVING FOR HEAD 
 INITIAL HNEW IS AN EXACT SOLUTION.

 NO OUTPUT CONTROL FOR STRESS PERIOD   25   TIME STEP 1882

 -------------------------------------------------------------------------------
                             SWR1 OUTPUT PRINT TIMES
                        STRESS PERIOD   25   TIME STEP  1882
 --------------- --------------- --------------- --------------- ---------------
     0.31224E+06                                                                
 -------------------------------------------------------------------------------
 
 SOLVING FOR HEAD 
 INITIAL HNEW IS AN EXACT SOLUTION.

 NO OUTPUT CONTROL FOR STRESS PERIOD   25   TIME STEP 1883

 -------------------------------------------------------------------------------
                             SWR1 OUTPUT PRINT TIMES
                        STRESS PERIOD   25   TIME STEP  1883
 --------------- --------------- --------------- --------------- ---------------
     0.31236E+06                                                                
 -------------------------------------------------------------------------------
 
 SOLVING FOR HEAD 
 INITIAL HNEW IS AN EXACT SOLUTION.

 NO OUTPUT CONTROL FOR STRESS PERIOD   25   TIME STEP 1884

 -------------------------------------------------------------------------------
                             SWR1 OUTPUT PRINT TIMES
                        STRESS PERIOD   25   TIME STEP  1884
 --------------- --------------- --------------- --------------- ---------------
     0.31248E+06                                                                
 -------------------------------------------------------------------------------
 
 SOLVING FOR HEAD 
 INITIAL HNEW IS AN EXACT SOLUTION.

 NO OUTPUT CONTROL FOR STRESS PERIOD   25   TIME STEP 1885

 -------------------------------------------------------------------------------
                             SWR1 OUTPUT PRINT TIMES
                        STRESS PERIOD   25   TIME STEP  1885
 --------------- --------------- --------------- --------------- ---------------
     0.31260E+06                                                                
 -------------------------------------------------------------------------------
 
 SOLVING FOR HEAD 
 INITIAL HNEW IS AN EXACT SOLUTION.

 NO OUTPUT CONTROL FOR STRESS PERIOD   25   TIME STEP 1886

 -------------------------------------------------------------------------------
                             SWR1 OUTPUT PRINT TIMES
                        STRESS PERIOD   25   TIME STEP  1886
 --------------- --------------- --------------- --------------- ---------------
     0.31272E+06                                                                
 -------------------------------------------------------------------------------
 
 SOLVING FOR HEAD 
 INITIAL HNEW IS AN EXACT SOLUTION.

 NO OUTPUT CONTROL FOR STRESS PERIOD   25   TIME STEP 1887

 -------------------------------------------------------------------------------
                             SWR1 OUTPUT PRINT TIMES
                        STRESS PERIOD   25   TIME STEP  1887
 --------------- --------------- --------------- --------------- ---------------
     0.31284E+06                                                                
 -------------------------------------------------------------------------------
 
 SOLVING FOR HEAD 
 INITIAL HNEW IS AN EXACT SOLUTION.

 NO OUTPUT CONTROL FOR STRESS PERIOD   25   TIME STEP 1888

 -------------------------------------------------------------------------------
                             SWR1 OUTPUT PRINT TIMES
                        STRESS PERIOD   25   TIME STEP  1888
 --------------- --------------- --------------- --------------- ---------------
     0.31296E+06                                                                
 -------------------------------------------------------------------------------
 
 SOLVING FOR HEAD 
 INITIAL HNEW IS AN EXACT SOLUTION.

 NO OUTPUT CONTROL FOR STRESS PERIOD   25   TIME STEP 1889

 -------------------------------------------------------------------------------
                             SWR1 OUTPUT PRINT TIMES
                        STRESS PERIOD   25   TIME STEP  1889
 --------------- --------------- --------------- --------------- ---------------
     0.31308E+06                                                                
 -------------------------------------------------------------------------------
 
 SOLVING FOR HEAD 
 INITIAL HNEW IS AN EXACT SOLUTION.

 NO OUTPUT CONTROL FOR STRESS PERIOD   25   TIME STEP 1890

 -------------------------------------------------------------------------------
                             SWR1 OUTPUT PRINT TIMES
                        STRESS PERIOD   25   TIME STEP  1890
 --------------- --------------- --------------- --------------- ---------------
     0.31320E+06                                                                
 -------------------------------------------------------------------------------
 
 SOLVING FOR HEAD 
 INITIAL HNEW IS AN EXACT SOLUTION.

 NO OUTPUT CONTROL FOR STRESS PERIOD   25   TIME STEP 1891

 -------------------------------------------------------------------------------
                             SWR1 OUTPUT PRINT TIMES
                        STRESS PERIOD   25   TIME STEP  1891
 --------------- --------------- --------------- --------------- ---------------
     0.31332E+06                                                                
 -------------------------------------------------------------------------------
 
 SOLVING FOR HEAD 
 INITIAL HNEW IS AN EXACT SOLUTION.

 NO OUTPUT CONTROL FOR STRESS PERIOD   25   TIME STEP 1892

 -------------------------------------------------------------------------------
                             SWR1 OUTPUT PRINT TIMES
                        STRESS PERIOD   25   TIME STEP  1892
 --------------- --------------- --------------- --------------- ---------------
     0.31344E+06                                                                
 -------------------------------------------------------------------------------
 
 SOLVING FOR HEAD 
 INITIAL HNEW IS AN EXACT SOLUTION.

 NO OUTPUT CONTROL FOR STRESS PERIOD   25   TIME STEP 1893

 -------------------------------------------------------------------------------
                             SWR1 OUTPUT PRINT TIMES
                        STRESS PERIOD   25   TIME STEP  1893
 --------------- --------------- --------------- --------------- ---------------
     0.31356E+06                                                                
 -------------------------------------------------------------------------------
 
 SOLVING FOR HEAD 
 INITIAL HNEW IS AN EXACT SOLUTION.

 NO OUTPUT CONTROL FOR STRESS PERIOD   25   TIME STEP 1894

 -------------------------------------------------------------------------------
                             SWR1 OUTPUT PRINT TIMES
                        STRESS PERIOD   25   TIME STEP  1894
 --------------- --------------- --------------- --------------- ---------------
     0.31368E+06                                                                
 -------------------------------------------------------------------------------
 
 SOLVING FOR HEAD 
 INITIAL HNEW IS AN EXACT SOLUTION.

 NO OUTPUT CONTROL FOR STRESS PERIOD   25   TIME STEP 1895

 -------------------------------------------------------------------------------
                             SWR1 OUTPUT PRINT TIMES
                        STRESS PERIOD   25   TIME STEP  1895
 --------------- --------------- --------------- --------------- ---------------
     0.31380E+06                                                                
 -------------------------------------------------------------------------------
 
 SOLVING FOR HEAD 
 INITIAL HNEW IS AN EXACT SOLUTION.

 NO OUTPUT CONTROL FOR STRESS PERIOD   25   TIME STEP 1896

 -------------------------------------------------------------------------------
                             SWR1 OUTPUT PRINT TIMES
                        STRESS PERIOD   25   TIME STEP  1896
 --------------- --------------- --------------- --------------- ---------------
     0.31392E+06                                                                
 -------------------------------------------------------------------------------
 
 SOLVING FOR HEAD 
 INITIAL HNEW IS AN EXACT SOLUTION.

 NO OUTPUT CONTROL FOR STRESS PERIOD   25   TIME STEP 1897

 -------------------------------------------------------------------------------
                             SWR1 OUTPUT PRINT TIMES
                        STRESS PERIOD   25   TIME STEP  1897
 --------------- --------------- --------------- --------------- ---------------
     0.31404E+06                                                                
 -------------------------------------------------------------------------------
 
 SOLVING FOR HEAD 
 INITIAL HNEW IS AN EXACT SOLUTION.

 NO OUTPUT CONTROL FOR STRESS PERIOD   25   TIME STEP 1898

 -------------------------------------------------------------------------------
                             SWR1 OUTPUT PRINT TIMES
                        STRESS PERIOD   25   TIME STEP  1898
 --------------- --------------- --------------- --------------- ---------------
     0.31416E+06                                                                
 -------------------------------------------------------------------------------
 
 SOLVING FOR HEAD 
 INITIAL HNEW IS AN EXACT SOLUTION.

 NO OUTPUT CONTROL FOR STRESS PERIOD   25   TIME STEP 1899

 -------------------------------------------------------------------------------
                             SWR1 OUTPUT PRINT TIMES
                        STRESS PERIOD   25   TIME STEP  1899
 --------------- --------------- --------------- --------------- ---------------
     0.31428E+06                                                                
 -------------------------------------------------------------------------------
 
 SOLVING FOR HEAD 
 INITIAL HNEW IS AN EXACT SOLUTION.

 NO OUTPUT CONTROL FOR STRESS PERIOD   25   TIME STEP 1900

 -------------------------------------------------------------------------------
                             SWR1 OUTPUT PRINT TIMES
                        STRESS PERIOD   25   TIME STEP  1900
 --------------- --------------- --------------- --------------- ---------------
     0.31440E+06                                                                
 -------------------------------------------------------------------------------
 
 SOLVING FOR HEAD 
 INITIAL HNEW IS AN EXACT SOLUTION.

 NO OUTPUT CONTROL FOR STRESS PERIOD   25   TIME STEP 1901

 -------------------------------------------------------------------------------
                             SWR1 OUTPUT PRINT TIMES
                        STRESS PERIOD   25   TIME STEP  1901
 --------------- --------------- --------------- --------------- ---------------
     0.31452E+06                                                                
 -------------------------------------------------------------------------------
 
 SOLVING FOR HEAD 
 INITIAL HNEW IS AN EXACT SOLUTION.

 NO OUTPUT CONTROL FOR STRESS PERIOD   25   TIME STEP 1902

 -------------------------------------------------------------------------------
                             SWR1 OUTPUT PRINT TIMES
                        STRESS PERIOD   25   TIME STEP  1902
 --------------- --------------- --------------- --------------- ---------------
     0.31464E+06                                                                
 -------------------------------------------------------------------------------
 
 SOLVING FOR HEAD 
 INITIAL HNEW IS AN EXACT SOLUTION.

 NO OUTPUT CONTROL FOR STRESS PERIOD   25   TIME STEP 1903

 -------------------------------------------------------------------------------
                             SWR1 OUTPUT PRINT TIMES
                        STRESS PERIOD   25   TIME STEP  1903
 --------------- --------------- --------------- --------------- ---------------
     0.31476E+06                                                                
 -------------------------------------------------------------------------------
 
 SOLVING FOR HEAD 
 INITIAL HNEW IS AN EXACT SOLUTION.

 NO OUTPUT CONTROL FOR STRESS PERIOD   25   TIME STEP 1904

 -------------------------------------------------------------------------------
                             SWR1 OUTPUT PRINT TIMES
                        STRESS PERIOD   25   TIME STEP  1904
 --------------- --------------- --------------- --------------- ---------------
     0.31488E+06                                                                
 -------------------------------------------------------------------------------
 
 SOLVING FOR HEAD 
 INITIAL HNEW IS AN EXACT SOLUTION.

 NO OUTPUT CONTROL FOR STRESS PERIOD   25   TIME STEP 1905

 -------------------------------------------------------------------------------
                             SWR1 OUTPUT PRINT TIMES
                        STRESS PERIOD   25   TIME STEP  1905
 --------------- --------------- --------------- --------------- ---------------
     0.31500E+06                                                                
 -------------------------------------------------------------------------------
 
 SOLVING FOR HEAD 
 INITIAL HNEW IS AN EXACT SOLUTION.

 NO OUTPUT CONTROL FOR STRESS PERIOD   25   TIME STEP 1906

 -------------------------------------------------------------------------------
                             SWR1 OUTPUT PRINT TIMES
                        STRESS PERIOD   25   TIME STEP  1906
 --------------- --------------- --------------- --------------- ---------------
     0.31512E+06                                                                
 -------------------------------------------------------------------------------
 
 SOLVING FOR HEAD 
 INITIAL HNEW IS AN EXACT SOLUTION.

 NO OUTPUT CONTROL FOR STRESS PERIOD   25   TIME STEP 1907

 -------------------------------------------------------------------------------
                             SWR1 OUTPUT PRINT TIMES
                        STRESS PERIOD   25   TIME STEP  1907
 --------------- --------------- --------------- --------------- ---------------
     0.31524E+06                                                                
 -------------------------------------------------------------------------------
 
 SOLVING FOR HEAD 
 INITIAL HNEW IS AN EXACT SOLUTION.

 NO OUTPUT CONTROL FOR STRESS PERIOD   25   TIME STEP 1908

 -------------------------------------------------------------------------------
                             SWR1 OUTPUT PRINT TIMES
                        STRESS PERIOD   25   TIME STEP  1908
 --------------- --------------- --------------- --------------- ---------------
     0.31536E+06                                                                
 -------------------------------------------------------------------------------
 
 SOLVING FOR HEAD 
 INITIAL HNEW IS AN EXACT SOLUTION.

 NO OUTPUT CONTROL FOR STRESS PERIOD   25   TIME STEP 1909

 -------------------------------------------------------------------------------
                             SWR1 OUTPUT PRINT TIMES
                        STRESS PERIOD   25   TIME STEP  1909
 --------------- --------------- --------------- --------------- ---------------
     0.31548E+06                                                                
 -------------------------------------------------------------------------------
 
 SOLVING FOR HEAD 
 INITIAL HNEW IS AN EXACT SOLUTION.

 NO OUTPUT CONTROL FOR STRESS PERIOD   25   TIME STEP 1910

 -------------------------------------------------------------------------------
                             SWR1 OUTPUT PRINT TIMES
                        STRESS PERIOD   25   TIME STEP  1910
 --------------- --------------- --------------- --------------- ---------------
     0.31560E+06                                                                
 -------------------------------------------------------------------------------
 
 SOLVING FOR HEAD 
 INITIAL HNEW IS AN EXACT SOLUTION.

 NO OUTPUT CONTROL FOR STRESS PERIOD   25   TIME STEP 1911

 -------------------------------------------------------------------------------
                             SWR1 OUTPUT PRINT TIMES
                        STRESS PERIOD   25   TIME STEP  1911
 --------------- --------------- --------------- --------------- ---------------
     0.31572E+06                                                                
 -------------------------------------------------------------------------------
 
 SOLVING FOR HEAD 
 INITIAL HNEW IS AN EXACT SOLUTION.

 NO OUTPUT CONTROL FOR STRESS PERIOD   25   TIME STEP 1912

 -------------------------------------------------------------------------------
                             SWR1 OUTPUT PRINT TIMES
                        STRESS PERIOD   25   TIME STEP  1912
 --------------- --------------- --------------- --------------- ---------------
     0.31584E+06                                                                
 -------------------------------------------------------------------------------
 
 SOLVING FOR HEAD 
 INITIAL HNEW IS AN EXACT SOLUTION.

 NO OUTPUT CONTROL FOR STRESS PERIOD   25   TIME STEP 1913

 -------------------------------------------------------------------------------
                             SWR1 OUTPUT PRINT TIMES
                        STRESS PERIOD   25   TIME STEP  1913
 --------------- --------------- --------------- --------------- ---------------
     0.31596E+06                                                                
 -------------------------------------------------------------------------------
 
 SOLVING FOR HEAD 
 INITIAL HNEW IS AN EXACT SOLUTION.

 NO OUTPUT CONTROL FOR STRESS PERIOD   25   TIME STEP 1914

 -------------------------------------------------------------------------------
                             SWR1 OUTPUT PRINT TIMES
                        STRESS PERIOD   25   TIME STEP  1914
 --------------- --------------- --------------- --------------- ---------------
     0.31608E+06                                                                
 -------------------------------------------------------------------------------
 
 SOLVING FOR HEAD 
 INITIAL HNEW IS AN EXACT SOLUTION.

 NO OUTPUT CONTROL FOR STRESS PERIOD   25   TIME STEP 1915

 -------------------------------------------------------------------------------
                             SWR1 OUTPUT PRINT TIMES
                        STRESS PERIOD   25   TIME STEP  1915
 --------------- --------------- --------------- --------------- ---------------
     0.31620E+06                                                                
 -------------------------------------------------------------------------------
 
 SOLVING FOR HEAD 
 INITIAL HNEW IS AN EXACT SOLUTION.

 NO OUTPUT CONTROL FOR STRESS PERIOD   25   TIME STEP 1916

 -------------------------------------------------------------------------------
                             SWR1 OUTPUT PRINT TIMES
                        STRESS PERIOD   25   TIME STEP  1916
 --------------- --------------- --------------- --------------- ---------------
     0.31632E+06                                                                
 -------------------------------------------------------------------------------
 
 SOLVING FOR HEAD 
 INITIAL HNEW IS AN EXACT SOLUTION.

 NO OUTPUT CONTROL FOR STRESS PERIOD   25   TIME STEP 1917

 -------------------------------------------------------------------------------
                             SWR1 OUTPUT PRINT TIMES
                        STRESS PERIOD   25   TIME STEP  1917
 --------------- --------------- --------------- --------------- ---------------
     0.31644E+06                                                                
 -------------------------------------------------------------------------------
 
 SOLVING FOR HEAD 
 INITIAL HNEW IS AN EXACT SOLUTION.

 NO OUTPUT CONTROL FOR STRESS PERIOD   25   TIME STEP 1918

 -------------------------------------------------------------------------------
                             SWR1 OUTPUT PRINT TIMES
                        STRESS PERIOD   25   TIME STEP  1918
 --------------- --------------- --------------- --------------- ---------------
     0.31656E+06                                                                
 -------------------------------------------------------------------------------
 
 SOLVING FOR HEAD 
 INITIAL HNEW IS AN EXACT SOLUTION.

 NO OUTPUT CONTROL FOR STRESS PERIOD   25   TIME STEP 1919

 -------------------------------------------------------------------------------
                             SWR1 OUTPUT PRINT TIMES
                        STRESS PERIOD   25   TIME STEP  1919
 --------------- --------------- --------------- --------------- ---------------
     0.31668E+06                                                                
 -------------------------------------------------------------------------------
 
 SOLVING FOR HEAD 
 INITIAL HNEW IS AN EXACT SOLUTION.

 NO OUTPUT CONTROL FOR STRESS PERIOD   25   TIME STEP 1920

 -------------------------------------------------------------------------------
                             SWR1 OUTPUT PRINT TIMES
                        STRESS PERIOD   25   TIME STEP  1920
 --------------- --------------- --------------- --------------- ---------------
     0.31680E+06                                                                
 -------------------------------------------------------------------------------
 
 SOLVING FOR HEAD 
 INITIAL HNEW IS AN EXACT SOLUTION.

 NO OUTPUT CONTROL FOR STRESS PERIOD   25   TIME STEP 1921

 -------------------------------------------------------------------------------
                             SWR1 OUTPUT PRINT TIMES
                        STRESS PERIOD   25   TIME STEP  1921
 --------------- --------------- --------------- --------------- ---------------
     0.31692E+06                                                                
 -------------------------------------------------------------------------------
 
 SOLVING FOR HEAD 
 INITIAL HNEW IS AN EXACT SOLUTION.

 NO OUTPUT CONTROL FOR STRESS PERIOD   25   TIME STEP 1922

 -------------------------------------------------------------------------------
                             SWR1 OUTPUT PRINT TIMES
                        STRESS PERIOD   25   TIME STEP  1922
 --------------- --------------- --------------- --------------- ---------------
     0.31704E+06                                                                
 -------------------------------------------------------------------------------
 
 SOLVING FOR HEAD 
 INITIAL HNEW IS AN EXACT SOLUTION.

 NO OUTPUT CONTROL FOR STRESS PERIOD   25   TIME STEP 1923

 -------------------------------------------------------------------------------
                             SWR1 OUTPUT PRINT TIMES
                        STRESS PERIOD   25   TIME STEP  1923
 --------------- --------------- --------------- --------------- ---------------
     0.31716E+06                                                                
 -------------------------------------------------------------------------------
 
 SOLVING FOR HEAD 
 INITIAL HNEW IS AN EXACT SOLUTION.

 NO OUTPUT CONTROL FOR STRESS PERIOD   25   TIME STEP 1924

 -------------------------------------------------------------------------------
                             SWR1 OUTPUT PRINT TIMES
                        STRESS PERIOD   25   TIME STEP  1924
 --------------- --------------- --------------- --------------- ---------------
     0.31728E+06                                                                
 -------------------------------------------------------------------------------
 
 SOLVING FOR HEAD 
 INITIAL HNEW IS AN EXACT SOLUTION.

 NO OUTPUT CONTROL FOR STRESS PERIOD   25   TIME STEP 1925

 -------------------------------------------------------------------------------
                             SWR1 OUTPUT PRINT TIMES
                        STRESS PERIOD   25   TIME STEP  1925
 --------------- --------------- --------------- --------------- ---------------
     0.31740E+06                                                                
 -------------------------------------------------------------------------------
 
 SOLVING FOR HEAD 
 INITIAL HNEW IS AN EXACT SOLUTION.

 NO OUTPUT CONTROL FOR STRESS PERIOD   25   TIME STEP 1926

 -------------------------------------------------------------------------------
                             SWR1 OUTPUT PRINT TIMES
                        STRESS PERIOD   25   TIME STEP  1926
 --------------- --------------- --------------- --------------- ---------------
     0.31752E+06                                                                
 -------------------------------------------------------------------------------
 
 SOLVING FOR HEAD 
 INITIAL HNEW IS AN EXACT SOLUTION.

 NO OUTPUT CONTROL FOR STRESS PERIOD   25   TIME STEP 1927

 -------------------------------------------------------------------------------
                             SWR1 OUTPUT PRINT TIMES
                        STRESS PERIOD   25   TIME STEP  1927
 --------------- --------------- --------------- --------------- ---------------
     0.31764E+06                                                                
 -------------------------------------------------------------------------------
 
 SOLVING FOR HEAD 
 INITIAL HNEW IS AN EXACT SOLUTION.

 NO OUTPUT CONTROL FOR STRESS PERIOD   25   TIME STEP 1928

 -------------------------------------------------------------------------------
                             SWR1 OUTPUT PRINT TIMES
                        STRESS PERIOD   25   TIME STEP  1928
 --------------- --------------- --------------- --------------- ---------------
     0.31776E+06                                                                
 -------------------------------------------------------------------------------
 
 SOLVING FOR HEAD 
 INITIAL HNEW IS AN EXACT SOLUTION.

 NO OUTPUT CONTROL FOR STRESS PERIOD   25   TIME STEP 1929

 -------------------------------------------------------------------------------
                             SWR1 OUTPUT PRINT TIMES
                        STRESS PERIOD   25   TIME STEP  1929
 --------------- --------------- --------------- --------------- ---------------
     0.31788E+06                                                                
 -------------------------------------------------------------------------------
 
 SOLVING FOR HEAD 
 INITIAL HNEW IS AN EXACT SOLUTION.

 NO OUTPUT CONTROL FOR STRESS PERIOD   25   TIME STEP 1930

 -------------------------------------------------------------------------------
                             SWR1 OUTPUT PRINT TIMES
                        STRESS PERIOD   25   TIME STEP  1930
 --------------- --------------- --------------- --------------- ---------------
     0.31800E+06                                                                
 -------------------------------------------------------------------------------
 
 SOLVING FOR HEAD 
 INITIAL HNEW IS AN EXACT SOLUTION.

 NO OUTPUT CONTROL FOR STRESS PERIOD   25   TIME STEP 1931

 -------------------------------------------------------------------------------
                             SWR1 OUTPUT PRINT TIMES
                        STRESS PERIOD   25   TIME STEP  1931
 --------------- --------------- --------------- --------------- ---------------
     0.31812E+06                                                                
 -------------------------------------------------------------------------------
 
 SOLVING FOR HEAD 
 INITIAL HNEW IS AN EXACT SOLUTION.

 NO OUTPUT CONTROL FOR STRESS PERIOD   25   TIME STEP 1932

 -------------------------------------------------------------------------------
                             SWR1 OUTPUT PRINT TIMES
                        STRESS PERIOD   25   TIME STEP  1932
 --------------- --------------- --------------- --------------- ---------------
     0.31824E+06                                                                
 -------------------------------------------------------------------------------
 
 SOLVING FOR HEAD 
 INITIAL HNEW IS AN EXACT SOLUTION.

 NO OUTPUT CONTROL FOR STRESS PERIOD   25   TIME STEP 1933

 -------------------------------------------------------------------------------
                             SWR1 OUTPUT PRINT TIMES
                        STRESS PERIOD   25   TIME STEP  1933
 --------------- --------------- --------------- --------------- ---------------
     0.31836E+06                                                                
 -------------------------------------------------------------------------------
 
 SOLVING FOR HEAD 
 INITIAL HNEW IS AN EXACT SOLUTION.

 NO OUTPUT CONTROL FOR STRESS PERIOD   25   TIME STEP 1934

 -------------------------------------------------------------------------------
                             SWR1 OUTPUT PRINT TIMES
                        STRESS PERIOD   25   TIME STEP  1934
 --------------- --------------- --------------- --------------- ---------------
     0.31848E+06                                                                
 -------------------------------------------------------------------------------
 
 SOLVING FOR HEAD 
 INITIAL HNEW IS AN EXACT SOLUTION.

 NO OUTPUT CONTROL FOR STRESS PERIOD   25   TIME STEP 1935

 -------------------------------------------------------------------------------
                             SWR1 OUTPUT PRINT TIMES
                        STRESS PERIOD   25   TIME STEP  1935
 --------------- --------------- --------------- --------------- ---------------
     0.31860E+06                                                                
 -------------------------------------------------------------------------------
 
 SOLVING FOR HEAD 
 INITIAL HNEW IS AN EXACT SOLUTION.

 NO OUTPUT CONTROL FOR STRESS PERIOD   25   TIME STEP 1936

 -------------------------------------------------------------------------------
                             SWR1 OUTPUT PRINT TIMES
                        STRESS PERIOD   25   TIME STEP  1936
 --------------- --------------- --------------- --------------- ---------------
     0.31872E+06                                                                
 -------------------------------------------------------------------------------
 
 SOLVING FOR HEAD 
 INITIAL HNEW IS AN EXACT SOLUTION.

 NO OUTPUT CONTROL FOR STRESS PERIOD   25   TIME STEP 1937

 -------------------------------------------------------------------------------
                             SWR1 OUTPUT PRINT TIMES
                        STRESS PERIOD   25   TIME STEP  1937
 --------------- --------------- --------------- --------------- ---------------
     0.31884E+06                                                                
 -------------------------------------------------------------------------------
 
 SOLVING FOR HEAD 
 INITIAL HNEW IS AN EXACT SOLUTION.

 NO OUTPUT CONTROL FOR STRESS PERIOD   25   TIME STEP 1938

 -------------------------------------------------------------------------------
                             SWR1 OUTPUT PRINT TIMES
                        STRESS PERIOD   25   TIME STEP  1938
 --------------- --------------- --------------- --------------- ---------------
     0.31896E+06                                                                
 -------------------------------------------------------------------------------
 
 SOLVING FOR HEAD 
 INITIAL HNEW IS AN EXACT SOLUTION.

 NO OUTPUT CONTROL FOR STRESS PERIOD   25   TIME STEP 1939

 -------------------------------------------------------------------------------
                             SWR1 OUTPUT PRINT TIMES
                        STRESS PERIOD   25   TIME STEP  1939
 --------------- --------------- --------------- --------------- ---------------
     0.31908E+06                                                                
 -------------------------------------------------------------------------------
 
 SOLVING FOR HEAD 
 INITIAL HNEW IS AN EXACT SOLUTION.

 NO OUTPUT CONTROL FOR STRESS PERIOD   25   TIME STEP 1940

 -------------------------------------------------------------------------------
                             SWR1 OUTPUT PRINT TIMES
                        STRESS PERIOD   25   TIME STEP  1940
 --------------- --------------- --------------- --------------- ---------------
     0.31920E+06                                                                
 -------------------------------------------------------------------------------
 
 SOLVING FOR HEAD 
 INITIAL HNEW IS AN EXACT SOLUTION.

 NO OUTPUT CONTROL FOR STRESS PERIOD   25   TIME STEP 1941

 -------------------------------------------------------------------------------
                             SWR1 OUTPUT PRINT TIMES
                        STRESS PERIOD   25   TIME STEP  1941
 --------------- --------------- --------------- --------------- ---------------
     0.31932E+06                                                                
 -------------------------------------------------------------------------------
 
 SOLVING FOR HEAD 
 INITIAL HNEW IS AN EXACT SOLUTION.

 NO OUTPUT CONTROL FOR STRESS PERIOD   25   TIME STEP 1942

 -------------------------------------------------------------------------------
                             SWR1 OUTPUT PRINT TIMES
                        STRESS PERIOD   25   TIME STEP  1942
 --------------- --------------- --------------- --------------- ---------------
     0.31944E+06                                                                
 -------------------------------------------------------------------------------
 
 SOLVING FOR HEAD 
 INITIAL HNEW IS AN EXACT SOLUTION.

 NO OUTPUT CONTROL FOR STRESS PERIOD   25   TIME STEP 1943

 -------------------------------------------------------------------------------
                             SWR1 OUTPUT PRINT TIMES
                        STRESS PERIOD   25   TIME STEP  1943
 --------------- --------------- --------------- --------------- ---------------
     0.31956E+06                                                                
 -------------------------------------------------------------------------------
 
 SOLVING FOR HEAD 
 INITIAL HNEW IS AN EXACT SOLUTION.

 NO OUTPUT CONTROL FOR STRESS PERIOD   25   TIME STEP 1944

 -------------------------------------------------------------------------------
                             SWR1 OUTPUT PRINT TIMES
                        STRESS PERIOD   25   TIME STEP  1944
 --------------- --------------- --------------- --------------- ---------------
     0.31968E+06                                                                
 -------------------------------------------------------------------------------
 
 SOLVING FOR HEAD 
 INITIAL HNEW IS AN EXACT SOLUTION.

 NO OUTPUT CONTROL FOR STRESS PERIOD   25   TIME STEP 1945

 -------------------------------------------------------------------------------
                             SWR1 OUTPUT PRINT TIMES
                        STRESS PERIOD   25   TIME STEP  1945
 --------------- --------------- --------------- --------------- ---------------
     0.31980E+06                                                                
 -------------------------------------------------------------------------------
 
 SOLVING FOR HEAD 
 INITIAL HNEW IS AN EXACT SOLUTION.

 NO OUTPUT CONTROL FOR STRESS PERIOD   25   TIME STEP 1946

 -------------------------------------------------------------------------------
                             SWR1 OUTPUT PRINT TIMES
                        STRESS PERIOD   25   TIME STEP  1946
 --------------- --------------- --------------- --------------- ---------------
     0.31992E+06                                                                
 -------------------------------------------------------------------------------
 
 SOLVING FOR HEAD 
 INITIAL HNEW IS AN EXACT SOLUTION.

 NO OUTPUT CONTROL FOR STRESS PERIOD   25   TIME STEP 1947

 -------------------------------------------------------------------------------
                             SWR1 OUTPUT PRINT TIMES
                        STRESS PERIOD   25   TIME STEP  1947
 --------------- --------------- --------------- --------------- ---------------
     0.32004E+06                                                                
 -------------------------------------------------------------------------------
 
 SOLVING FOR HEAD 
 INITIAL HNEW IS AN EXACT SOLUTION.

 NO OUTPUT CONTROL FOR STRESS PERIOD   25   TIME STEP 1948

 -------------------------------------------------------------------------------
                             SWR1 OUTPUT PRINT TIMES
                        STRESS PERIOD   25   TIME STEP  1948
 --------------- --------------- --------------- --------------- ---------------
     0.32016E+06                                                                
 -------------------------------------------------------------------------------
 
 SOLVING FOR HEAD 
 INITIAL HNEW IS AN EXACT SOLUTION.

 NO OUTPUT CONTROL FOR STRESS PERIOD   25   TIME STEP 1949

 -------------------------------------------------------------------------------
                             SWR1 OUTPUT PRINT TIMES
                        STRESS PERIOD   25   TIME STEP  1949
 --------------- --------------- --------------- --------------- ---------------
     0.32028E+06                                                                
 -------------------------------------------------------------------------------
 
 SOLVING FOR HEAD 
 INITIAL HNEW IS AN EXACT SOLUTION.

 NO OUTPUT CONTROL FOR STRESS PERIOD   25   TIME STEP 1950

 -------------------------------------------------------------------------------
                             SWR1 OUTPUT PRINT TIMES
                        STRESS PERIOD   25   TIME STEP  1950
 --------------- --------------- --------------- --------------- ---------------
     0.32040E+06                                                                
 -------------------------------------------------------------------------------
 
 SOLVING FOR HEAD 
 INITIAL HNEW IS AN EXACT SOLUTION.

 NO OUTPUT CONTROL FOR STRESS PERIOD   25   TIME STEP 1951

 -------------------------------------------------------------------------------
                             SWR1 OUTPUT PRINT TIMES
                        STRESS PERIOD   25   TIME STEP  1951
 --------------- --------------- --------------- --------------- ---------------
     0.32052E+06                                                                
 -------------------------------------------------------------------------------
 
 SOLVING FOR HEAD 
 INITIAL HNEW IS AN EXACT SOLUTION.

 NO OUTPUT CONTROL FOR STRESS PERIOD   25   TIME STEP 1952

 -------------------------------------------------------------------------------
                             SWR1 OUTPUT PRINT TIMES
                        STRESS PERIOD   25   TIME STEP  1952
 --------------- --------------- --------------- --------------- ---------------
     0.32064E+06                                                                
 -------------------------------------------------------------------------------
 
 SOLVING FOR HEAD 
 INITIAL HNEW IS AN EXACT SOLUTION.

 NO OUTPUT CONTROL FOR STRESS PERIOD   25   TIME STEP 1953

 -------------------------------------------------------------------------------
                             SWR1 OUTPUT PRINT TIMES
                        STRESS PERIOD   25   TIME STEP  1953
 --------------- --------------- --------------- --------------- ---------------
     0.32076E+06                                                                
 -------------------------------------------------------------------------------
 
 SOLVING FOR HEAD 
 INITIAL HNEW IS AN EXACT SOLUTION.

 NO OUTPUT CONTROL FOR STRESS PERIOD   25   TIME STEP 1954

 -------------------------------------------------------------------------------
                             SWR1 OUTPUT PRINT TIMES
                        STRESS PERIOD   25   TIME STEP  1954
 --------------- --------------- --------------- --------------- ---------------
     0.32088E+06                                                                
 -------------------------------------------------------------------------------
 
 SOLVING FOR HEAD 
 INITIAL HNEW IS AN EXACT SOLUTION.

 NO OUTPUT CONTROL FOR STRESS PERIOD   25   TIME STEP 1955

 -------------------------------------------------------------------------------
                             SWR1 OUTPUT PRINT TIMES
                        STRESS PERIOD   25   TIME STEP  1955
 --------------- --------------- --------------- --------------- ---------------
     0.32100E+06                                                                
 -------------------------------------------------------------------------------
 
 SOLVING FOR HEAD 
 INITIAL HNEW IS AN EXACT SOLUTION.

 NO OUTPUT CONTROL FOR STRESS PERIOD   25   TIME STEP 1956

 -------------------------------------------------------------------------------
                             SWR1 OUTPUT PRINT TIMES
                        STRESS PERIOD   25   TIME STEP  1956
 --------------- --------------- --------------- --------------- ---------------
     0.32112E+06                                                                
 -------------------------------------------------------------------------------
 
 SOLVING FOR HEAD 
 INITIAL HNEW IS AN EXACT SOLUTION.

 NO OUTPUT CONTROL FOR STRESS PERIOD   25   TIME STEP 1957

 -------------------------------------------------------------------------------
                             SWR1 OUTPUT PRINT TIMES
                        STRESS PERIOD   25   TIME STEP  1957
 --------------- --------------- --------------- --------------- ---------------
     0.32124E+06                                                                
 -------------------------------------------------------------------------------
 
 SOLVING FOR HEAD 
 INITIAL HNEW IS AN EXACT SOLUTION.

 NO OUTPUT CONTROL FOR STRESS PERIOD   25   TIME STEP 1958

 -------------------------------------------------------------------------------
                             SWR1 OUTPUT PRINT TIMES
                        STRESS PERIOD   25   TIME STEP  1958
 --------------- --------------- --------------- --------------- ---------------
     0.32136E+06                                                                
 -------------------------------------------------------------------------------
 
 SOLVING FOR HEAD 
 INITIAL HNEW IS AN EXACT SOLUTION.

 NO OUTPUT CONTROL FOR STRESS PERIOD   25   TIME STEP 1959

 -------------------------------------------------------------------------------
                             SWR1 OUTPUT PRINT TIMES
                        STRESS PERIOD   25   TIME STEP  1959
 --------------- --------------- --------------- --------------- ---------------
     0.32148E+06                                                                
 -------------------------------------------------------------------------------
 
 SOLVING FOR HEAD 
 INITIAL HNEW IS AN EXACT SOLUTION.

 NO OUTPUT CONTROL FOR STRESS PERIOD   25   TIME STEP 1960

 -------------------------------------------------------------------------------
                             SWR1 OUTPUT PRINT TIMES
                        STRESS PERIOD   25   TIME STEP  1960
 --------------- --------------- --------------- --------------- ---------------
     0.32160E+06                                                                
 -------------------------------------------------------------------------------
 
 SOLVING FOR HEAD 
 INITIAL HNEW IS AN EXACT SOLUTION.

 NO OUTPUT CONTROL FOR STRESS PERIOD   25   TIME STEP 1961

 -------------------------------------------------------------------------------
                             SWR1 OUTPUT PRINT TIMES
                        STRESS PERIOD   25   TIME STEP  1961
 --------------- --------------- --------------- --------------- ---------------
     0.32172E+06                                                                
 -------------------------------------------------------------------------------
 
 SOLVING FOR HEAD 
 INITIAL HNEW IS AN EXACT SOLUTION.

 NO OUTPUT CONTROL FOR STRESS PERIOD   25   TIME STEP 1962

 -------------------------------------------------------------------------------
                             SWR1 OUTPUT PRINT TIMES
                        STRESS PERIOD   25   TIME STEP  1962
 --------------- --------------- --------------- --------------- ---------------
     0.32184E+06                                                                
 -------------------------------------------------------------------------------
 
 SOLVING FOR HEAD 
 INITIAL HNEW IS AN EXACT SOLUTION.

 NO OUTPUT CONTROL FOR STRESS PERIOD   25   TIME STEP 1963

 -------------------------------------------------------------------------------
                             SWR1 OUTPUT PRINT TIMES
                        STRESS PERIOD   25   TIME STEP  1963
 --------------- --------------- --------------- --------------- ---------------
     0.32196E+06                                                                
 -------------------------------------------------------------------------------
 
 SOLVING FOR HEAD 
 INITIAL HNEW IS AN EXACT SOLUTION.

 NO OUTPUT CONTROL FOR STRESS PERIOD   25   TIME STEP 1964

 -------------------------------------------------------------------------------
                             SWR1 OUTPUT PRINT TIMES
                        STRESS PERIOD   25   TIME STEP  1964
 --------------- --------------- --------------- --------------- ---------------
     0.32208E+06                                                                
 -------------------------------------------------------------------------------
 
 SOLVING FOR HEAD 
 INITIAL HNEW IS AN EXACT SOLUTION.

 NO OUTPUT CONTROL FOR STRESS PERIOD   25   TIME STEP 1965

 -------------------------------------------------------------------------------
                             SWR1 OUTPUT PRINT TIMES
                        STRESS PERIOD   25   TIME STEP  1965
 --------------- --------------- --------------- --------------- ---------------
     0.32220E+06                                                                
 -------------------------------------------------------------------------------
 
 SOLVING FOR HEAD 
 INITIAL HNEW IS AN EXACT SOLUTION.

 NO OUTPUT CONTROL FOR STRESS PERIOD   25   TIME STEP 1966

 -------------------------------------------------------------------------------
                             SWR1 OUTPUT PRINT TIMES
                        STRESS PERIOD   25   TIME STEP  1966
 --------------- --------------- --------------- --------------- ---------------
     0.32232E+06                                                                
 -------------------------------------------------------------------------------
 
 SOLVING FOR HEAD 
 INITIAL HNEW IS AN EXACT SOLUTION.

 NO OUTPUT CONTROL FOR STRESS PERIOD   25   TIME STEP 1967

 -------------------------------------------------------------------------------
                             SWR1 OUTPUT PRINT TIMES
                        STRESS PERIOD   25   TIME STEP  1967
 --------------- --------------- --------------- --------------- ---------------
     0.32244E+06                                                                
 -------------------------------------------------------------------------------
 
 SOLVING FOR HEAD 
 INITIAL HNEW IS AN EXACT SOLUTION.

 NO OUTPUT CONTROL FOR STRESS PERIOD   25   TIME STEP 1968

 -------------------------------------------------------------------------------
                             SWR1 OUTPUT PRINT TIMES
                        STRESS PERIOD   25   TIME STEP  1968
 --------------- --------------- --------------- --------------- ---------------
     0.32256E+06                                                                
 -------------------------------------------------------------------------------
 
 SOLVING FOR HEAD 
 INITIAL HNEW IS AN EXACT SOLUTION.

 NO OUTPUT CONTROL FOR STRESS PERIOD   25   TIME STEP 1969

 -------------------------------------------------------------------------------
                             SWR1 OUTPUT PRINT TIMES
                        STRESS PERIOD   25   TIME STEP  1969
 --------------- --------------- --------------- --------------- ---------------
     0.32268E+06                                                                
 -------------------------------------------------------------------------------
 
 SOLVING FOR HEAD 
 INITIAL HNEW IS AN EXACT SOLUTION.

 NO OUTPUT CONTROL FOR STRESS PERIOD   25   TIME STEP 1970

 -------------------------------------------------------------------------------
                             SWR1 OUTPUT PRINT TIMES
                        STRESS PERIOD   25   TIME STEP  1970
 --------------- --------------- --------------- --------------- ---------------
     0.32280E+06                                                                
 -------------------------------------------------------------------------------
 
 SOLVING FOR HEAD 
 INITIAL HNEW IS AN EXACT SOLUTION.

 NO OUTPUT CONTROL FOR STRESS PERIOD   25   TIME STEP 1971

 -------------------------------------------------------------------------------
                             SWR1 OUTPUT PRINT TIMES
                        STRESS PERIOD   25   TIME STEP  1971
 --------------- --------------- --------------- --------------- ---------------
     0.32292E+06                                                                
 -------------------------------------------------------------------------------
 
 SOLVING FOR HEAD 
 INITIAL HNEW IS AN EXACT SOLUTION.

 NO OUTPUT CONTROL FOR STRESS PERIOD   25   TIME STEP 1972

 -------------------------------------------------------------------------------
                             SWR1 OUTPUT PRINT TIMES
                        STRESS PERIOD   25   TIME STEP  1972
 --------------- --------------- --------------- --------------- ---------------
     0.32304E+06                                                                
 -------------------------------------------------------------------------------
 
 SOLVING FOR HEAD 
 INITIAL HNEW IS AN EXACT SOLUTION.

 NO OUTPUT CONTROL FOR STRESS PERIOD   25   TIME STEP 1973

 -------------------------------------------------------------------------------
                             SWR1 OUTPUT PRINT TIMES
                        STRESS PERIOD   25   TIME STEP  1973
 --------------- --------------- --------------- --------------- ---------------
     0.32316E+06                                                                
 -------------------------------------------------------------------------------
 
 SOLVING FOR HEAD 
 INITIAL HNEW IS AN EXACT SOLUTION.

 NO OUTPUT CONTROL FOR STRESS PERIOD   25   TIME STEP 1974

 -------------------------------------------------------------------------------
                             SWR1 OUTPUT PRINT TIMES
                        STRESS PERIOD   25   TIME STEP  1974
 --------------- --------------- --------------- --------------- ---------------
     0.32328E+06                                                                
 -------------------------------------------------------------------------------
 
 SOLVING FOR HEAD 
 INITIAL HNEW IS AN EXACT SOLUTION.

 NO OUTPUT CONTROL FOR STRESS PERIOD   25   TIME STEP 1975

 -------------------------------------------------------------------------------
                             SWR1 OUTPUT PRINT TIMES
                        STRESS PERIOD   25   TIME STEP  1975
 --------------- --------------- --------------- --------------- ---------------
     0.32340E+06                                                                
 -------------------------------------------------------------------------------
 
 SOLVING FOR HEAD 
 INITIAL HNEW IS AN EXACT SOLUTION.

 NO OUTPUT CONTROL FOR STRESS PERIOD   25   TIME STEP 1976

 -------------------------------------------------------------------------------
                             SWR1 OUTPUT PRINT TIMES
                        STRESS PERIOD   25   TIME STEP  1976
 --------------- --------------- --------------- --------------- ---------------
     0.32352E+06                                                                
 -------------------------------------------------------------------------------
 
 SOLVING FOR HEAD 
 INITIAL HNEW IS AN EXACT SOLUTION.

 NO OUTPUT CONTROL FOR STRESS PERIOD   25   TIME STEP 1977

 -------------------------------------------------------------------------------
                             SWR1 OUTPUT PRINT TIMES
                        STRESS PERIOD   25   TIME STEP  1977
 --------------- --------------- --------------- --------------- ---------------
     0.32364E+06                                                                
 -------------------------------------------------------------------------------
 
 SOLVING FOR HEAD 
 INITIAL HNEW IS AN EXACT SOLUTION.

 NO OUTPUT CONTROL FOR STRESS PERIOD   25   TIME STEP 1978

 -------------------------------------------------------------------------------
                             SWR1 OUTPUT PRINT TIMES
                        STRESS PERIOD   25   TIME STEP  1978
 --------------- --------------- --------------- --------------- ---------------
     0.32376E+06                                                                
 -------------------------------------------------------------------------------
 
 SOLVING FOR HEAD 
 INITIAL HNEW IS AN EXACT SOLUTION.

 NO OUTPUT CONTROL FOR STRESS PERIOD   25   TIME STEP 1979

 -------------------------------------------------------------------------------
                             SWR1 OUTPUT PRINT TIMES
                        STRESS PERIOD   25   TIME STEP  1979
 --------------- --------------- --------------- --------------- ---------------
     0.32388E+06                                                                
 -------------------------------------------------------------------------------
 
 SOLVING FOR HEAD 
 INITIAL HNEW IS AN EXACT SOLUTION.

 NO OUTPUT CONTROL FOR STRESS PERIOD   25   TIME STEP 1980

 -------------------------------------------------------------------------------
                             SWR1 OUTPUT PRINT TIMES
                        STRESS PERIOD   25   TIME STEP  1980
 --------------- --------------- --------------- --------------- ---------------
     0.32400E+06                                                                
 -------------------------------------------------------------------------------
 
 SOLVING FOR HEAD 
 INITIAL HNEW IS AN EXACT SOLUTION.

 NO OUTPUT CONTROL FOR STRESS PERIOD   25   TIME STEP 1981

 -------------------------------------------------------------------------------
                             SWR1 OUTPUT PRINT TIMES
                        STRESS PERIOD   25   TIME STEP  1981
 --------------- --------------- --------------- --------------- ---------------
     0.32412E+06                                                                
 -------------------------------------------------------------------------------
 
 SOLVING FOR HEAD 
 INITIAL HNEW IS AN EXACT SOLUTION.

 NO OUTPUT CONTROL FOR STRESS PERIOD   25   TIME STEP 1982

 -------------------------------------------------------------------------------
                             SWR1 OUTPUT PRINT TIMES
                        STRESS PERIOD   25   TIME STEP  1982
 --------------- --------------- --------------- --------------- ---------------
     0.32424E+06                                                                
 -------------------------------------------------------------------------------
 
 SOLVING FOR HEAD 
 INITIAL HNEW IS AN EXACT SOLUTION.

 NO OUTPUT CONTROL FOR STRESS PERIOD   25   TIME STEP 1983

 -------------------------------------------------------------------------------
                             SWR1 OUTPUT PRINT TIMES
                        STRESS PERIOD   25   TIME STEP  1983
 --------------- --------------- --------------- --------------- ---------------
     0.32436E+06                                                                
 -------------------------------------------------------------------------------
 
 SOLVING FOR HEAD 
 INITIAL HNEW IS AN EXACT SOLUTION.

 NO OUTPUT CONTROL FOR STRESS PERIOD   25   TIME STEP 1984

 -------------------------------------------------------------------------------
                             SWR1 OUTPUT PRINT TIMES
                        STRESS PERIOD   25   TIME STEP  1984
 --------------- --------------- --------------- --------------- ---------------
     0.32448E+06                                                                
 -------------------------------------------------------------------------------
 
 SOLVING FOR HEAD 
 INITIAL HNEW IS AN EXACT SOLUTION.

 NO OUTPUT CONTROL FOR STRESS PERIOD   25   TIME STEP 1985

 -------------------------------------------------------------------------------
                             SWR1 OUTPUT PRINT TIMES
                        STRESS PERIOD   25   TIME STEP  1985
 --------------- --------------- --------------- --------------- ---------------
     0.32460E+06                                                                
 -------------------------------------------------------------------------------
 
 SOLVING FOR HEAD 
 INITIAL HNEW IS AN EXACT SOLUTION.

 NO OUTPUT CONTROL FOR STRESS PERIOD   25   TIME STEP 1986

 -------------------------------------------------------------------------------
                             SWR1 OUTPUT PRINT TIMES
                        STRESS PERIOD   25   TIME STEP  1986
 --------------- --------------- --------------- --------------- ---------------
     0.32472E+06                                                                
 -------------------------------------------------------------------------------
 
 SOLVING FOR HEAD 
 INITIAL HNEW IS AN EXACT SOLUTION.

 NO OUTPUT CONTROL FOR STRESS PERIOD   25   TIME STEP 1987

 -------------------------------------------------------------------------------
                             SWR1 OUTPUT PRINT TIMES
                        STRESS PERIOD   25   TIME STEP  1987
 --------------- --------------- --------------- --------------- ---------------
     0.32484E+06                                                                
 -------------------------------------------------------------------------------
 
 SOLVING FOR HEAD 
 INITIAL HNEW IS AN EXACT SOLUTION.

 NO OUTPUT CONTROL FOR STRESS PERIOD   25   TIME STEP 1988

 -------------------------------------------------------------------------------
                             SWR1 OUTPUT PRINT TIMES
                        STRESS PERIOD   25   TIME STEP  1988
 --------------- --------------- --------------- --------------- ---------------
     0.32496E+06                                                                
 -------------------------------------------------------------------------------
 
 SOLVING FOR HEAD 
 INITIAL HNEW IS AN EXACT SOLUTION.

 NO OUTPUT CONTROL FOR STRESS PERIOD   25   TIME STEP 1989

 -------------------------------------------------------------------------------
                             SWR1 OUTPUT PRINT TIMES
                        STRESS PERIOD   25   TIME STEP  1989
 --------------- --------------- --------------- --------------- ---------------
     0.32508E+06                                                                
 -------------------------------------------------------------------------------
 
 SOLVING FOR HEAD 
 INITIAL HNEW IS AN EXACT SOLUTION.

 NO OUTPUT CONTROL FOR STRESS PERIOD   25   TIME STEP 1990

 -------------------------------------------------------------------------------
                             SWR1 OUTPUT PRINT TIMES
                        STRESS PERIOD   25   TIME STEP  1990
 --------------- --------------- --------------- --------------- ---------------
     0.32520E+06                                                                
 -------------------------------------------------------------------------------
 
 SOLVING FOR HEAD 
 INITIAL HNEW IS AN EXACT SOLUTION.

 NO OUTPUT CONTROL FOR STRESS PERIOD   25   TIME STEP 1991

 -------------------------------------------------------------------------------
                             SWR1 OUTPUT PRINT TIMES
                        STRESS PERIOD   25   TIME STEP  1991
 --------------- --------------- --------------- --------------- ---------------
     0.32532E+06                                                                
 -------------------------------------------------------------------------------
 
 SOLVING FOR HEAD 
 INITIAL HNEW IS AN EXACT SOLUTION.

 NO OUTPUT CONTROL FOR STRESS PERIOD   25   TIME STEP 1992

 -------------------------------------------------------------------------------
                             SWR1 OUTPUT PRINT TIMES
                        STRESS PERIOD   25   TIME STEP  1992
 --------------- --------------- --------------- --------------- ---------------
     0.32544E+06                                                                
 -------------------------------------------------------------------------------
 
 SOLVING FOR HEAD 
 INITIAL HNEW IS AN EXACT SOLUTION.

 NO OUTPUT CONTROL FOR STRESS PERIOD   25   TIME STEP 1993

 -------------------------------------------------------------------------------
                             SWR1 OUTPUT PRINT TIMES
                        STRESS PERIOD   25   TIME STEP  1993
 --------------- --------------- --------------- --------------- ---------------
     0.32556E+06                                                                
 -------------------------------------------------------------------------------
 
 SOLVING FOR HEAD 
 INITIAL HNEW IS AN EXACT SOLUTION.

 NO OUTPUT CONTROL FOR STRESS PERIOD   25   TIME STEP 1994

 -------------------------------------------------------------------------------
                             SWR1 OUTPUT PRINT TIMES
                        STRESS PERIOD   25   TIME STEP  1994
 --------------- --------------- --------------- --------------- ---------------
     0.32568E+06                                                                
 -------------------------------------------------------------------------------
 
 SOLVING FOR HEAD 
 INITIAL HNEW IS AN EXACT SOLUTION.

 NO OUTPUT CONTROL FOR STRESS PERIOD   25   TIME STEP 1995

 -------------------------------------------------------------------------------
                             SWR1 OUTPUT PRINT TIMES
                        STRESS PERIOD   25   TIME STEP  1995
 --------------- --------------- --------------- --------------- ---------------
     0.32580E+06                                                                
 -------------------------------------------------------------------------------
 
 SOLVING FOR HEAD 
 INITIAL HNEW IS AN EXACT SOLUTION.

 NO OUTPUT CONTROL FOR STRESS PERIOD   25   TIME STEP 1996

 -------------------------------------------------------------------------------
                             SWR1 OUTPUT PRINT TIMES
                        STRESS PERIOD   25   TIME STEP  1996
 --------------- --------------- --------------- --------------- ---------------
     0.32592E+06                                                                
 -------------------------------------------------------------------------------
 
 SOLVING FOR HEAD 
 INITIAL HNEW IS AN EXACT SOLUTION.

 NO OUTPUT CONTROL FOR STRESS PERIOD   25   TIME STEP 1997

 -------------------------------------------------------------------------------
                             SWR1 OUTPUT PRINT TIMES
                        STRESS PERIOD   25   TIME STEP  1997
 --------------- --------------- --------------- --------------- ---------------
     0.32604E+06                                                                
 -------------------------------------------------------------------------------
 
 SOLVING FOR HEAD 
 INITIAL HNEW IS AN EXACT SOLUTION.

 NO OUTPUT CONTROL FOR STRESS PERIOD   25   TIME STEP 1998

 -------------------------------------------------------------------------------
                             SWR1 OUTPUT PRINT TIMES
                        STRESS PERIOD   25   TIME STEP  1998
 --------------- --------------- --------------- --------------- ---------------
     0.32616E+06                                                                
 -------------------------------------------------------------------------------
 
 SOLVING FOR HEAD 
 INITIAL HNEW IS AN EXACT SOLUTION.

 NO OUTPUT CONTROL FOR STRESS PERIOD   25   TIME STEP 1999

 -------------------------------------------------------------------------------
                             SWR1 OUTPUT PRINT TIMES
                        STRESS PERIOD   25   TIME STEP  1999
 --------------- --------------- --------------- --------------- ---------------
     0.32628E+06                                                                
 -------------------------------------------------------------------------------
 
 SOLVING FOR HEAD 
 INITIAL HNEW IS AN EXACT SOLUTION.

 NO OUTPUT CONTROL FOR STRESS PERIOD   25   TIME STEP 2000

 -------------------------------------------------------------------------------
                             SWR1 OUTPUT PRINT TIMES
                        STRESS PERIOD   25   TIME STEP  2000
 --------------- --------------- --------------- --------------- ---------------
     0.32640E+06                                                                
 -------------------------------------------------------------------------------
 
 SOLVING FOR HEAD 
 INITIAL HNEW IS AN EXACT SOLUTION.

 NO OUTPUT CONTROL FOR STRESS PERIOD   25   TIME STEP 2001

 -------------------------------------------------------------------------------
                             SWR1 OUTPUT PRINT TIMES
                        STRESS PERIOD   25   TIME STEP  2001
 --------------- --------------- --------------- --------------- ---------------
     0.32652E+06                                                                
 -------------------------------------------------------------------------------
 
 SOLVING FOR HEAD 
 INITIAL HNEW IS AN EXACT SOLUTION.

 NO OUTPUT CONTROL FOR STRESS PERIOD   25   TIME STEP 2002

 -------------------------------------------------------------------------------
                             SWR1 OUTPUT PRINT TIMES
                        STRESS PERIOD   25   TIME STEP  2002
 --------------- --------------- --------------- --------------- ---------------
     0.32664E+06                                                                
 -------------------------------------------------------------------------------
 
 SOLVING FOR HEAD 
 INITIAL HNEW IS AN EXACT SOLUTION.

 NO OUTPUT CONTROL FOR STRESS PERIOD   25   TIME STEP 2003

 -------------------------------------------------------------------------------
                             SWR1 OUTPUT PRINT TIMES
                        STRESS PERIOD   25   TIME STEP  2003
 --------------- --------------- --------------- --------------- ---------------
     0.32676E+06                                                                
 -------------------------------------------------------------------------------
 
 SOLVING FOR HEAD 
 INITIAL HNEW IS AN EXACT SOLUTION.

 NO OUTPUT CONTROL FOR STRESS PERIOD   25   TIME STEP 2004

 -------------------------------------------------------------------------------
                             SWR1 OUTPUT PRINT TIMES
                        STRESS PERIOD   25   TIME STEP  2004
 --------------- --------------- --------------- --------------- ---------------
     0.32688E+06                                                                
 -------------------------------------------------------------------------------
 
 SOLVING FOR HEAD 
 INITIAL HNEW IS AN EXACT SOLUTION.

 NO OUTPUT CONTROL FOR STRESS PERIOD   25   TIME STEP 2005

 -------------------------------------------------------------------------------
                             SWR1 OUTPUT PRINT TIMES
                        STRESS PERIOD   25   TIME STEP  2005
 --------------- --------------- --------------- --------------- ---------------
     0.32700E+06                                                                
 -------------------------------------------------------------------------------
 
 SOLVING FOR HEAD 
 INITIAL HNEW IS AN EXACT SOLUTION.

 NO OUTPUT CONTROL FOR STRESS PERIOD   25   TIME STEP 2006

 -------------------------------------------------------------------------------
                             SWR1 OUTPUT PRINT TIMES
                        STRESS PERIOD   25   TIME STEP  2006
 --------------- --------------- --------------- --------------- ---------------
     0.32712E+06                                                                
 -------------------------------------------------------------------------------
 
 SOLVING FOR HEAD 
 INITIAL HNEW IS AN EXACT SOLUTION.

 NO OUTPUT CONTROL FOR STRESS PERIOD   25   TIME STEP 2007

 -------------------------------------------------------------------------------
                             SWR1 OUTPUT PRINT TIMES
                        STRESS PERIOD   25   TIME STEP  2007
 --------------- --------------- --------------- --------------- ---------------
     0.32724E+06                                                                
 -------------------------------------------------------------------------------
 
 SOLVING FOR HEAD 
 INITIAL HNEW IS AN EXACT SOLUTION.

 NO OUTPUT CONTROL FOR STRESS PERIOD   25   TIME STEP 2008

 -------------------------------------------------------------------------------
                             SWR1 OUTPUT PRINT TIMES
                        STRESS PERIOD   25   TIME STEP  2008
 --------------- --------------- --------------- --------------- ---------------
     0.32736E+06                                                                
 -------------------------------------------------------------------------------
 
 SOLVING FOR HEAD 
 INITIAL HNEW IS AN EXACT SOLUTION.

 NO OUTPUT CONTROL FOR STRESS PERIOD   25   TIME STEP 2009

 -------------------------------------------------------------------------------
                             SWR1 OUTPUT PRINT TIMES
                        STRESS PERIOD   25   TIME STEP  2009
 --------------- --------------- --------------- --------------- ---------------
     0.32748E+06                                                                
 -------------------------------------------------------------------------------
 
 SOLVING FOR HEAD 
 INITIAL HNEW IS AN EXACT SOLUTION.

 NO OUTPUT CONTROL FOR STRESS PERIOD   25   TIME STEP 2010

 -------------------------------------------------------------------------------
                             SWR1 OUTPUT PRINT TIMES
                        STRESS PERIOD   25   TIME STEP  2010
 --------------- --------------- --------------- --------------- ---------------
     0.32760E+06                                                                
 -------------------------------------------------------------------------------
 
 SOLVING FOR HEAD 
 INITIAL HNEW IS AN EXACT SOLUTION.

 NO OUTPUT CONTROL FOR STRESS PERIOD   25   TIME STEP 2011

 -------------------------------------------------------------------------------
                             SWR1 OUTPUT PRINT TIMES
                        STRESS PERIOD   25   TIME STEP  2011
 --------------- --------------- --------------- --------------- ---------------
     0.32772E+06                                                                
 -------------------------------------------------------------------------------
 
 SOLVING FOR HEAD 
 INITIAL HNEW IS AN EXACT SOLUTION.

 NO OUTPUT CONTROL FOR STRESS PERIOD   25   TIME STEP 2012

 -------------------------------------------------------------------------------
                             SWR1 OUTPUT PRINT TIMES
                        STRESS PERIOD   25   TIME STEP  2012
 --------------- --------------- --------------- --------------- ---------------
     0.32784E+06                                                                
 -------------------------------------------------------------------------------
 
 SOLVING FOR HEAD 
 INITIAL HNEW IS AN EXACT SOLUTION.

 NO OUTPUT CONTROL FOR STRESS PERIOD   25   TIME STEP 2013

 -------------------------------------------------------------------------------
                             SWR1 OUTPUT PRINT TIMES
                        STRESS PERIOD   25   TIME STEP  2013
 --------------- --------------- --------------- --------------- ---------------
     0.32796E+06                                                                
 -------------------------------------------------------------------------------
 
 SOLVING FOR HEAD 
 INITIAL HNEW IS AN EXACT SOLUTION.

 NO OUTPUT CONTROL FOR STRESS PERIOD   25   TIME STEP 2014

 -------------------------------------------------------------------------------
                             SWR1 OUTPUT PRINT TIMES
                        STRESS PERIOD   25   TIME STEP  2014
 --------------- --------------- --------------- --------------- ---------------
     0.32808E+06                                                                
 -------------------------------------------------------------------------------
 
 SOLVING FOR HEAD 
 INITIAL HNEW IS AN EXACT SOLUTION.

 NO OUTPUT CONTROL FOR STRESS PERIOD   25   TIME STEP 2015

 -------------------------------------------------------------------------------
                             SWR1 OUTPUT PRINT TIMES
                        STRESS PERIOD   25   TIME STEP  2015
 --------------- --------------- --------------- --------------- ---------------
     0.32820E+06                                                                
 -------------------------------------------------------------------------------
 
 SOLVING FOR HEAD 
 INITIAL HNEW IS AN EXACT SOLUTION.

 NO OUTPUT CONTROL FOR STRESS PERIOD   25   TIME STEP 2016

 -------------------------------------------------------------------------------
                             SWR1 OUTPUT PRINT TIMES
                        STRESS PERIOD   25   TIME STEP  2016
 --------------- --------------- --------------- --------------- ---------------
     0.32832E+06                                                                
 -------------------------------------------------------------------------------
 
 SOLVING FOR HEAD 
 INITIAL HNEW IS AN EXACT SOLUTION.

 NO OUTPUT CONTROL FOR STRESS PERIOD   25   TIME STEP 2017

 -------------------------------------------------------------------------------
                             SWR1 OUTPUT PRINT TIMES
                        STRESS PERIOD   25   TIME STEP  2017
 --------------- --------------- --------------- --------------- ---------------
     0.32844E+06                                                                
 -------------------------------------------------------------------------------
 
 SOLVING FOR HEAD 
 INITIAL HNEW IS AN EXACT SOLUTION.

 NO OUTPUT CONTROL FOR STRESS PERIOD   25   TIME STEP 2018

 -------------------------------------------------------------------------------
                             SWR1 OUTPUT PRINT TIMES
                        STRESS PERIOD   25   TIME STEP  2018
 --------------- --------------- --------------- --------------- ---------------
     0.32856E+06                                                                
 -------------------------------------------------------------------------------
 
 SOLVING FOR HEAD 
 INITIAL HNEW IS AN EXACT SOLUTION.

 NO OUTPUT CONTROL FOR STRESS PERIOD   25   TIME STEP 2019

 -------------------------------------------------------------------------------
                             SWR1 OUTPUT PRINT TIMES
                        STRESS PERIOD   25   TIME STEP  2019
 --------------- --------------- --------------- --------------- ---------------
     0.32868E+06                                                                
 -------------------------------------------------------------------------------
 
 SOLVING FOR HEAD 
 INITIAL HNEW IS AN EXACT SOLUTION.

 NO OUTPUT CONTROL FOR STRESS PERIOD   25   TIME STEP 2020

 -------------------------------------------------------------------------------
                             SWR1 OUTPUT PRINT TIMES
                        STRESS PERIOD   25   TIME STEP  2020
 --------------- --------------- --------------- --------------- ---------------
     0.32880E+06                                                                
 -------------------------------------------------------------------------------
 
 SOLVING FOR HEAD 
 INITIAL HNEW IS AN EXACT SOLUTION.

 NO OUTPUT CONTROL FOR STRESS PERIOD   25   TIME STEP 2021

 -------------------------------------------------------------------------------
                             SWR1 OUTPUT PRINT TIMES
                        STRESS PERIOD   25   TIME STEP  2021
 --------------- --------------- --------------- --------------- ---------------
     0.32892E+06                                                                
 -------------------------------------------------------------------------------
 
 SOLVING FOR HEAD 
 INITIAL HNEW IS AN EXACT SOLUTION.

 NO OUTPUT CONTROL FOR STRESS PERIOD   25   TIME STEP 2022

 -------------------------------------------------------------------------------
                             SWR1 OUTPUT PRINT TIMES
                        STRESS PERIOD   25   TIME STEP  2022
 --------------- --------------- --------------- --------------- ---------------
     0.32904E+06                                                                
 -------------------------------------------------------------------------------
 
 SOLVING FOR HEAD 
 INITIAL HNEW IS AN EXACT SOLUTION.

 NO OUTPUT CONTROL FOR STRESS PERIOD   25   TIME STEP 2023

 -------------------------------------------------------------------------------
                             SWR1 OUTPUT PRINT TIMES
                        STRESS PERIOD   25   TIME STEP  2023
 --------------- --------------- --------------- --------------- ---------------
     0.32916E+06                                                                
 -------------------------------------------------------------------------------
 
 SOLVING FOR HEAD 
 INITIAL HNEW IS AN EXACT SOLUTION.

 NO OUTPUT CONTROL FOR STRESS PERIOD   25   TIME STEP 2024

 -------------------------------------------------------------------------------
                             SWR1 OUTPUT PRINT TIMES
                        STRESS PERIOD   25   TIME STEP  2024
 --------------- --------------- --------------- --------------- ---------------
     0.32928E+06                                                                
 -------------------------------------------------------------------------------
 
 SOLVING FOR HEAD 
 INITIAL HNEW IS AN EXACT SOLUTION.

 NO OUTPUT CONTROL FOR STRESS PERIOD   25   TIME STEP 2025

 -------------------------------------------------------------------------------
                             SWR1 OUTPUT PRINT TIMES
                        STRESS PERIOD   25   TIME STEP  2025
 --------------- --------------- --------------- --------------- ---------------
     0.32940E+06                                                                
 -------------------------------------------------------------------------------
 
 SOLVING FOR HEAD 
 INITIAL HNEW IS AN EXACT SOLUTION.

 NO OUTPUT CONTROL FOR STRESS PERIOD   25   TIME STEP 2026

 -------------------------------------------------------------------------------
                             SWR1 OUTPUT PRINT TIMES
                        STRESS PERIOD   25   TIME STEP  2026
 --------------- --------------- --------------- --------------- ---------------
     0.32952E+06                                                                
 -------------------------------------------------------------------------------
 
 SOLVING FOR HEAD 
 INITIAL HNEW IS AN EXACT SOLUTION.

 NO OUTPUT CONTROL FOR STRESS PERIOD   25   TIME STEP 2027

 -------------------------------------------------------------------------------
                             SWR1 OUTPUT PRINT TIMES
                        STRESS PERIOD   25   TIME STEP  2027
 --------------- --------------- --------------- --------------- ---------------
     0.32964E+06                                                                
 -------------------------------------------------------------------------------
 
 SOLVING FOR HEAD 
 INITIAL HNEW IS AN EXACT SOLUTION.

 NO OUTPUT CONTROL FOR STRESS PERIOD   25   TIME STEP 2028

 -------------------------------------------------------------------------------
                             SWR1 OUTPUT PRINT TIMES
                        STRESS PERIOD   25   TIME STEP  2028
 --------------- --------------- --------------- --------------- ---------------
     0.32976E+06                                                                
 -------------------------------------------------------------------------------
 
 SOLVING FOR HEAD 
 INITIAL HNEW IS AN EXACT SOLUTION.

 NO OUTPUT CONTROL FOR STRESS PERIOD   25   TIME STEP 2029

 -------------------------------------------------------------------------------
                             SWR1 OUTPUT PRINT TIMES
                        STRESS PERIOD   25   TIME STEP  2029
 --------------- --------------- --------------- --------------- ---------------
     0.32988E+06                                                                
 -------------------------------------------------------------------------------
 
 SOLVING FOR HEAD 
 INITIAL HNEW IS AN EXACT SOLUTION.

 NO OUTPUT CONTROL FOR STRESS PERIOD   25   TIME STEP 2030

 -------------------------------------------------------------------------------
                             SWR1 OUTPUT PRINT TIMES
                        STRESS PERIOD   25   TIME STEP  2030
 --------------- --------------- --------------- --------------- ---------------
     0.33000E+06                                                                
 -------------------------------------------------------------------------------
 
 SOLVING FOR HEAD 
 INITIAL HNEW IS AN EXACT SOLUTION.

 NO OUTPUT CONTROL FOR STRESS PERIOD   25   TIME STEP 2031

 -------------------------------------------------------------------------------
                             SWR1 OUTPUT PRINT TIMES
                        STRESS PERIOD   25   TIME STEP  2031
 --------------- --------------- --------------- --------------- ---------------
     0.33012E+06                                                                
 -------------------------------------------------------------------------------
 
 SOLVING FOR HEAD 
 INITIAL HNEW IS AN EXACT SOLUTION.

 NO OUTPUT CONTROL FOR STRESS PERIOD   25   TIME STEP 2032

 -------------------------------------------------------------------------------
                             SWR1 OUTPUT PRINT TIMES
                        STRESS PERIOD   25   TIME STEP  2032
 --------------- --------------- --------------- --------------- ---------------
     0.33024E+06                                                                
 -------------------------------------------------------------------------------
 
 SOLVING FOR HEAD 
 INITIAL HNEW IS AN EXACT SOLUTION.

 NO OUTPUT CONTROL FOR STRESS PERIOD   25   TIME STEP 2033

 -------------------------------------------------------------------------------
                             SWR1 OUTPUT PRINT TIMES
                        STRESS PERIOD   25   TIME STEP  2033
 --------------- --------------- --------------- --------------- ---------------
     0.33036E+06                                                                
 -------------------------------------------------------------------------------
 
 SOLVING FOR HEAD 
 INITIAL HNEW IS AN EXACT SOLUTION.

 NO OUTPUT CONTROL FOR STRESS PERIOD   25   TIME STEP 2034

 -------------------------------------------------------------------------------
                             SWR1 OUTPUT PRINT TIMES
                        STRESS PERIOD   25   TIME STEP  2034
 --------------- --------------- --------------- --------------- ---------------
     0.33048E+06                                                                
 -------------------------------------------------------------------------------
 
 SOLVING FOR HEAD 
 INITIAL HNEW IS AN EXACT SOLUTION.

 NO OUTPUT CONTROL FOR STRESS PERIOD   25   TIME STEP 2035

 -------------------------------------------------------------------------------
                             SWR1 OUTPUT PRINT TIMES
                        STRESS PERIOD   25   TIME STEP  2035
 --------------- --------------- --------------- --------------- ---------------
     0.33060E+06                                                                
 -------------------------------------------------------------------------------
 
 SOLVING FOR HEAD 
 INITIAL HNEW IS AN EXACT SOLUTION.

 NO OUTPUT CONTROL FOR STRESS PERIOD   25   TIME STEP 2036

 -------------------------------------------------------------------------------
                             SWR1 OUTPUT PRINT TIMES
                        STRESS PERIOD   25   TIME STEP  2036
 --------------- --------------- --------------- --------------- ---------------
     0.33072E+06                                                                
 -------------------------------------------------------------------------------
 
 SOLVING FOR HEAD 
 INITIAL HNEW IS AN EXACT SOLUTION.

 NO OUTPUT CONTROL FOR STRESS PERIOD   25   TIME STEP 2037

 -------------------------------------------------------------------------------
                             SWR1 OUTPUT PRINT TIMES
                        STRESS PERIOD   25   TIME STEP  2037
 --------------- --------------- --------------- --------------- ---------------
     0.33084E+06                                                                
 -------------------------------------------------------------------------------
 
 SOLVING FOR HEAD 
 INITIAL HNEW IS AN EXACT SOLUTION.

 NO OUTPUT CONTROL FOR STRESS PERIOD   25   TIME STEP 2038

 -------------------------------------------------------------------------------
                             SWR1 OUTPUT PRINT TIMES
                        STRESS PERIOD   25   TIME STEP  2038
 --------------- --------------- --------------- --------------- ---------------
     0.33096E+06                                                                
 -------------------------------------------------------------------------------
 
 SOLVING FOR HEAD 
 INITIAL HNEW IS AN EXACT SOLUTION.

 NO OUTPUT CONTROL FOR STRESS PERIOD   25   TIME STEP 2039

 -------------------------------------------------------------------------------
                             SWR1 OUTPUT PRINT TIMES
                        STRESS PERIOD   25   TIME STEP  2039
 --------------- --------------- --------------- --------------- ---------------
     0.33108E+06                                                                
 -------------------------------------------------------------------------------
 
 SOLVING FOR HEAD 
 INITIAL HNEW IS AN EXACT SOLUTION.

 NO OUTPUT CONTROL FOR STRESS PERIOD   25   TIME STEP 2040

 -------------------------------------------------------------------------------
                             SWR1 OUTPUT PRINT TIMES
                        STRESS PERIOD   25   TIME STEP  2040
 --------------- --------------- --------------- --------------- ---------------
     0.33120E+06                                                                
 -------------------------------------------------------------------------------
 
 SOLVING FOR HEAD 
 INITIAL HNEW IS AN EXACT SOLUTION.

 NO OUTPUT CONTROL FOR STRESS PERIOD   25   TIME STEP 2041

 -------------------------------------------------------------------------------
                             SWR1 OUTPUT PRINT TIMES
                        STRESS PERIOD   25   TIME STEP  2041
 --------------- --------------- --------------- --------------- ---------------
     0.33132E+06                                                                
 -------------------------------------------------------------------------------
 
 SOLVING FOR HEAD 
 INITIAL HNEW IS AN EXACT SOLUTION.

 NO OUTPUT CONTROL FOR STRESS PERIOD   25   TIME STEP 2042

 -------------------------------------------------------------------------------
                             SWR1 OUTPUT PRINT TIMES
                        STRESS PERIOD   25   TIME STEP  2042
 --------------- --------------- --------------- --------------- ---------------
     0.33144E+06                                                                
 -------------------------------------------------------------------------------
 
 SOLVING FOR HEAD 
 INITIAL HNEW IS AN EXACT SOLUTION.

 NO OUTPUT CONTROL FOR STRESS PERIOD   25   TIME STEP 2043

 -------------------------------------------------------------------------------
                             SWR1 OUTPUT PRINT TIMES
                        STRESS PERIOD   25   TIME STEP  2043
 --------------- --------------- --------------- --------------- ---------------
     0.33156E+06                                                                
 -------------------------------------------------------------------------------
 
 SOLVING FOR HEAD 
 INITIAL HNEW IS AN EXACT SOLUTION.

 NO OUTPUT CONTROL FOR STRESS PERIOD   25   TIME STEP 2044

 -------------------------------------------------------------------------------
                             SWR1 OUTPUT PRINT TIMES
                        STRESS PERIOD   25   TIME STEP  2044
 --------------- --------------- --------------- --------------- ---------------
     0.33168E+06                                                                
 -------------------------------------------------------------------------------
 
 SOLVING FOR HEAD 
 INITIAL HNEW IS AN EXACT SOLUTION.

 NO OUTPUT CONTROL FOR STRESS PERIOD   25   TIME STEP 2045

 -------------------------------------------------------------------------------
                             SWR1 OUTPUT PRINT TIMES
                        STRESS PERIOD   25   TIME STEP  2045
 --------------- --------------- --------------- --------------- ---------------
     0.33180E+06                                                                
 -------------------------------------------------------------------------------
 
 SOLVING FOR HEAD 
 INITIAL HNEW IS AN EXACT SOLUTION.

 NO OUTPUT CONTROL FOR STRESS PERIOD   25   TIME STEP 2046

 -------------------------------------------------------------------------------
                             SWR1 OUTPUT PRINT TIMES
                        STRESS PERIOD   25   TIME STEP  2046
 --------------- --------------- --------------- --------------- ---------------
     0.33192E+06                                                                
 -------------------------------------------------------------------------------
 
 SOLVING FOR HEAD 
 INITIAL HNEW IS AN EXACT SOLUTION.

 NO OUTPUT CONTROL FOR STRESS PERIOD   25   TIME STEP 2047

 -------------------------------------------------------------------------------
                             SWR1 OUTPUT PRINT TIMES
                        STRESS PERIOD   25   TIME STEP  2047
 --------------- --------------- --------------- --------------- ---------------
     0.33204E+06                                                                
 -------------------------------------------------------------------------------
 
 SOLVING FOR HEAD 
 INITIAL HNEW IS AN EXACT SOLUTION.

 NO OUTPUT CONTROL FOR STRESS PERIOD   25   TIME STEP 2048

 -------------------------------------------------------------------------------
                             SWR1 OUTPUT PRINT TIMES
                        STRESS PERIOD   25   TIME STEP  2048
 --------------- --------------- --------------- --------------- ---------------
     0.33216E+06                                                                
 -------------------------------------------------------------------------------
 
 SOLVING FOR HEAD 
 INITIAL HNEW IS AN EXACT SOLUTION.

 NO OUTPUT CONTROL FOR STRESS PERIOD   25   TIME STEP 2049

 -------------------------------------------------------------------------------
                             SWR1 OUTPUT PRINT TIMES
                        STRESS PERIOD   25   TIME STEP  2049
 --------------- --------------- --------------- --------------- ---------------
     0.33228E+06                                                                
 -------------------------------------------------------------------------------
 
 SOLVING FOR HEAD 
 INITIAL HNEW IS AN EXACT SOLUTION.

 NO OUTPUT CONTROL FOR STRESS PERIOD   25   TIME STEP 2050

 -------------------------------------------------------------------------------
                             SWR1 OUTPUT PRINT TIMES
                        STRESS PERIOD   25   TIME STEP  2050
 --------------- --------------- --------------- --------------- ---------------
     0.33240E+06                                                                
 -------------------------------------------------------------------------------
 
 SOLVING FOR HEAD 
 INITIAL HNEW IS AN EXACT SOLUTION.

 NO OUTPUT CONTROL FOR STRESS PERIOD   25   TIME STEP 2051

 -------------------------------------------------------------------------------
                             SWR1 OUTPUT PRINT TIMES
                        STRESS PERIOD   25   TIME STEP  2051
 --------------- --------------- --------------- --------------- ---------------
     0.33252E+06                                                                
 -------------------------------------------------------------------------------
 
 SOLVING FOR HEAD 
 INITIAL HNEW IS AN EXACT SOLUTION.

 NO OUTPUT CONTROL FOR STRESS PERIOD   25   TIME STEP 2052

 -------------------------------------------------------------------------------
                             SWR1 OUTPUT PRINT TIMES
                        STRESS PERIOD   25   TIME STEP  2052
 --------------- --------------- --------------- --------------- ---------------
     0.33264E+06                                                                
 -------------------------------------------------------------------------------
 
 SOLVING FOR HEAD 
 INITIAL HNEW IS AN EXACT SOLUTION.

 NO OUTPUT CONTROL FOR STRESS PERIOD   25   TIME STEP 2053

 -------------------------------------------------------------------------------
                             SWR1 OUTPUT PRINT TIMES
                        STRESS PERIOD   25   TIME STEP  2053
 --------------- --------------- --------------- --------------- ---------------
     0.33276E+06                                                                
 -------------------------------------------------------------------------------
 
 SOLVING FOR HEAD 
 INITIAL HNEW IS AN EXACT SOLUTION.

 NO OUTPUT CONTROL FOR STRESS PERIOD   25   TIME STEP 2054

 -------------------------------------------------------------------------------
                             SWR1 OUTPUT PRINT TIMES
                        STRESS PERIOD   25   TIME STEP  2054
 --------------- --------------- --------------- --------------- ---------------
     0.33288E+06                                                                
 -------------------------------------------------------------------------------
 
 SOLVING FOR HEAD 
 INITIAL HNEW IS AN EXACT SOLUTION.

 NO OUTPUT CONTROL FOR STRESS PERIOD   25   TIME STEP 2055

 -------------------------------------------------------------------------------
                             SWR1 OUTPUT PRINT TIMES
                        STRESS PERIOD   25   TIME STEP  2055
 --------------- --------------- --------------- --------------- ---------------
     0.33300E+06                                                                
 -------------------------------------------------------------------------------
 
 SOLVING FOR HEAD 
 INITIAL HNEW IS AN EXACT SOLUTION.

 NO OUTPUT CONTROL FOR STRESS PERIOD   25   TIME STEP 2056

 -------------------------------------------------------------------------------
                             SWR1 OUTPUT PRINT TIMES
                        STRESS PERIOD   25   TIME STEP  2056
 --------------- --------------- --------------- --------------- ---------------
     0.33312E+06                                                                
 -------------------------------------------------------------------------------
 
 SOLVING FOR HEAD 
 INITIAL HNEW IS AN EXACT SOLUTION.

 NO OUTPUT CONTROL FOR STRESS PERIOD   25   TIME STEP 2057

 -------------------------------------------------------------------------------
                             SWR1 OUTPUT PRINT TIMES
                        STRESS PERIOD   25   TIME STEP  2057
 --------------- --------------- --------------- --------------- ---------------
     0.33324E+06                                                                
 -------------------------------------------------------------------------------
 
 SOLVING FOR HEAD 
 INITIAL HNEW IS AN EXACT SOLUTION.

 NO OUTPUT CONTROL FOR STRESS PERIOD   25   TIME STEP 2058

 -------------------------------------------------------------------------------
                             SWR1 OUTPUT PRINT TIMES
                        STRESS PERIOD   25   TIME STEP  2058
 --------------- --------------- --------------- --------------- ---------------
     0.33336E+06                                                                
 -------------------------------------------------------------------------------
 
 SOLVING FOR HEAD 
 INITIAL HNEW IS AN EXACT SOLUTION.

 NO OUTPUT CONTROL FOR STRESS PERIOD   25   TIME STEP 2059

 -------------------------------------------------------------------------------
                             SWR1 OUTPUT PRINT TIMES
                        STRESS PERIOD   25   TIME STEP  2059
 --------------- --------------- --------------- --------------- ---------------
     0.33348E+06                                                                
 -------------------------------------------------------------------------------
 
 SOLVING FOR HEAD 
 INITIAL HNEW IS AN EXACT SOLUTION.

 NO OUTPUT CONTROL FOR STRESS PERIOD   25   TIME STEP 2060

 -------------------------------------------------------------------------------
                             SWR1 OUTPUT PRINT TIMES
                        STRESS PERIOD   25   TIME STEP  2060
 --------------- --------------- --------------- --------------- ---------------
     0.33360E+06                                                                
 -------------------------------------------------------------------------------
 
 SOLVING FOR HEAD 
 INITIAL HNEW IS AN EXACT SOLUTION.

 NO OUTPUT CONTROL FOR STRESS PERIOD   25   TIME STEP 2061

 -------------------------------------------------------------------------------
                             SWR1 OUTPUT PRINT TIMES
                        STRESS PERIOD   25   TIME STEP  2061
 --------------- --------------- --------------- --------------- ---------------
     0.33372E+06                                                                
 -------------------------------------------------------------------------------
 
 SOLVING FOR HEAD 
 INITIAL HNEW IS AN EXACT SOLUTION.

 NO OUTPUT CONTROL FOR STRESS PERIOD   25   TIME STEP 2062

 -------------------------------------------------------------------------------
                             SWR1 OUTPUT PRINT TIMES
                        STRESS PERIOD   25   TIME STEP  2062
 --------------- --------------- --------------- --------------- ---------------
     0.33384E+06                                                                
 -------------------------------------------------------------------------------
 
 SOLVING FOR HEAD 
 INITIAL HNEW IS AN EXACT SOLUTION.

 NO OUTPUT CONTROL FOR STRESS PERIOD   25   TIME STEP 2063

 -------------------------------------------------------------------------------
                             SWR1 OUTPUT PRINT TIMES
                        STRESS PERIOD   25   TIME STEP  2063
 --------------- --------------- --------------- --------------- ---------------
     0.33396E+06                                                                
 -------------------------------------------------------------------------------
 
 SOLVING FOR HEAD 
 INITIAL HNEW IS AN EXACT SOLUTION.

 NO OUTPUT CONTROL FOR STRESS PERIOD   25   TIME STEP 2064

 -------------------------------------------------------------------------------
                             SWR1 OUTPUT PRINT TIMES
                        STRESS PERIOD   25   TIME STEP  2064
 --------------- --------------- --------------- --------------- ---------------
     0.33408E+06                                                                
 -------------------------------------------------------------------------------
 
 SOLVING FOR HEAD 
 INITIAL HNEW IS AN EXACT SOLUTION.

 NO OUTPUT CONTROL FOR STRESS PERIOD   25   TIME STEP 2065

 -------------------------------------------------------------------------------
                             SWR1 OUTPUT PRINT TIMES
                        STRESS PERIOD   25   TIME STEP  2065
 --------------- --------------- --------------- --------------- ---------------
     0.33420E+06                                                                
 -------------------------------------------------------------------------------
 
 SOLVING FOR HEAD 
 INITIAL HNEW IS AN EXACT SOLUTION.

 NO OUTPUT CONTROL FOR STRESS PERIOD   25   TIME STEP 2066

 -------------------------------------------------------------------------------
                             SWR1 OUTPUT PRINT TIMES
                        STRESS PERIOD   25   TIME STEP  2066
 --------------- --------------- --------------- --------------- ---------------
     0.33432E+06                                                                
 -------------------------------------------------------------------------------
 
 SOLVING FOR HEAD 
 INITIAL HNEW IS AN EXACT SOLUTION.

 NO OUTPUT CONTROL FOR STRESS PERIOD   25   TIME STEP 2067

 -------------------------------------------------------------------------------
                             SWR1 OUTPUT PRINT TIMES
                        STRESS PERIOD   25   TIME STEP  2067
 --------------- --------------- --------------- --------------- ---------------
     0.33444E+06                                                                
 -------------------------------------------------------------------------------
 
 SOLVING FOR HEAD 
 INITIAL HNEW IS AN EXACT SOLUTION.

 NO OUTPUT CONTROL FOR STRESS PERIOD   25   TIME STEP 2068

 -------------------------------------------------------------------------------
                             SWR1 OUTPUT PRINT TIMES
                        STRESS PERIOD   25   TIME STEP  2068
 --------------- --------------- --------------- --------------- ---------------
     0.33456E+06                                                                
 -------------------------------------------------------------------------------
 
 SOLVING FOR HEAD 
 INITIAL HNEW IS AN EXACT SOLUTION.

 NO OUTPUT CONTROL FOR STRESS PERIOD   25   TIME STEP 2069

 -------------------------------------------------------------------------------
                             SWR1 OUTPUT PRINT TIMES
                        STRESS PERIOD   25   TIME STEP  2069
 --------------- --------------- --------------- --------------- ---------------
     0.33468E+06                                                                
 -------------------------------------------------------------------------------
 
 SOLVING FOR HEAD 
 INITIAL HNEW IS AN EXACT SOLUTION.

 NO OUTPUT CONTROL FOR STRESS PERIOD   25   TIME STEP 2070

 -------------------------------------------------------------------------------
                             SWR1 OUTPUT PRINT TIMES
                        STRESS PERIOD   25   TIME STEP  2070
 --------------- --------------- --------------- --------------- ---------------
     0.33480E+06                                                                
 -------------------------------------------------------------------------------
 
 SOLVING FOR HEAD 
 INITIAL HNEW IS AN EXACT SOLUTION.

 NO OUTPUT CONTROL FOR STRESS PERIOD   25   TIME STEP 2071

 -------------------------------------------------------------------------------
                             SWR1 OUTPUT PRINT TIMES
                        STRESS PERIOD   25   TIME STEP  2071
 --------------- --------------- --------------- --------------- ---------------
     0.33492E+06                                                                
 -------------------------------------------------------------------------------
 
 SOLVING FOR HEAD 
 INITIAL HNEW IS AN EXACT SOLUTION.

 NO OUTPUT CONTROL FOR STRESS PERIOD   25   TIME STEP 2072

 -------------------------------------------------------------------------------
                             SWR1 OUTPUT PRINT TIMES
                        STRESS PERIOD   25   TIME STEP  2072
 --------------- --------------- --------------- --------------- ---------------
     0.33504E+06                                                                
 -------------------------------------------------------------------------------
 
 SOLVING FOR HEAD 
 INITIAL HNEW IS AN EXACT SOLUTION.

 NO OUTPUT CONTROL FOR STRESS PERIOD   25   TIME STEP 2073

 -------------------------------------------------------------------------------
                             SWR1 OUTPUT PRINT TIMES
                        STRESS PERIOD   25   TIME STEP  2073
 --------------- --------------- --------------- --------------- ---------------
     0.33516E+06                                                                
 -------------------------------------------------------------------------------
 
 SOLVING FOR HEAD 
 INITIAL HNEW IS AN EXACT SOLUTION.

 NO OUTPUT CONTROL FOR STRESS PERIOD   25   TIME STEP 2074

 -------------------------------------------------------------------------------
                             SWR1 OUTPUT PRINT TIMES
                        STRESS PERIOD   25   TIME STEP  2074
 --------------- --------------- --------------- --------------- ---------------
     0.33528E+06                                                                
 -------------------------------------------------------------------------------
 
 SOLVING FOR HEAD 
 INITIAL HNEW IS AN EXACT SOLUTION.

 NO OUTPUT CONTROL FOR STRESS PERIOD   25   TIME STEP 2075

 -------------------------------------------------------------------------------
                             SWR1 OUTPUT PRINT TIMES
                        STRESS PERIOD   25   TIME STEP  2075
 --------------- --------------- --------------- --------------- ---------------
     0.33540E+06                                                                
 -------------------------------------------------------------------------------
 
 SOLVING FOR HEAD 
 INITIAL HNEW IS AN EXACT SOLUTION.

 NO OUTPUT CONTROL FOR STRESS PERIOD   25   TIME STEP 2076

 -------------------------------------------------------------------------------
                             SWR1 OUTPUT PRINT TIMES
                        STRESS PERIOD   25   TIME STEP  2076
 --------------- --------------- --------------- --------------- ---------------
     0.33552E+06                                                                
 -------------------------------------------------------------------------------
 
 SOLVING FOR HEAD 
 INITIAL HNEW IS AN EXACT SOLUTION.

 NO OUTPUT CONTROL FOR STRESS PERIOD   25   TIME STEP 2077

 -------------------------------------------------------------------------------
                             SWR1 OUTPUT PRINT TIMES
                        STRESS PERIOD   25   TIME STEP  2077
 --------------- --------------- --------------- --------------- ---------------
     0.33564E+06                                                                
 -------------------------------------------------------------------------------
 
 SOLVING FOR HEAD 
 INITIAL HNEW IS AN EXACT SOLUTION.

 NO OUTPUT CONTROL FOR STRESS PERIOD   25   TIME STEP 2078

 -------------------------------------------------------------------------------
                             SWR1 OUTPUT PRINT TIMES
                        STRESS PERIOD   25   TIME STEP  2078
 --------------- --------------- --------------- --------------- ---------------
     0.33576E+06                                                                
 -------------------------------------------------------------------------------
 
 SOLVING FOR HEAD 
 INITIAL HNEW IS AN EXACT SOLUTION.

 NO OUTPUT CONTROL FOR STRESS PERIOD   25   TIME STEP 2079

 -------------------------------------------------------------------------------
                             SWR1 OUTPUT PRINT TIMES
                        STRESS PERIOD   25   TIME STEP  2079
 --------------- --------------- --------------- --------------- ---------------
     0.33588E+06                                                                
 -------------------------------------------------------------------------------
 
 SOLVING FOR HEAD 
 INITIAL HNEW IS AN EXACT SOLUTION.

 NO OUTPUT CONTROL FOR STRESS PERIOD   25   TIME STEP 2080

 -------------------------------------------------------------------------------
                             SWR1 OUTPUT PRINT TIMES
                        STRESS PERIOD   25   TIME STEP  2080
 --------------- --------------- --------------- --------------- ---------------
     0.33600E+06                                                                
 -------------------------------------------------------------------------------
 
 SOLVING FOR HEAD 
 INITIAL HNEW IS AN EXACT SOLUTION.

 NO OUTPUT CONTROL FOR STRESS PERIOD   25   TIME STEP 2081

 -------------------------------------------------------------------------------
                             SWR1 OUTPUT PRINT TIMES
                        STRESS PERIOD   25   TIME STEP  2081
 --------------- --------------- --------------- --------------- ---------------
     0.33612E+06                                                                
 -------------------------------------------------------------------------------
 
 SOLVING FOR HEAD 
 INITIAL HNEW IS AN EXACT SOLUTION.

 NO OUTPUT CONTROL FOR STRESS PERIOD   25   TIME STEP 2082

 -------------------------------------------------------------------------------
                             SWR1 OUTPUT PRINT TIMES
                        STRESS PERIOD   25   TIME STEP  2082
 --------------- --------------- --------------- --------------- ---------------
     0.33624E+06                                                                
 -------------------------------------------------------------------------------
 
 SOLVING FOR HEAD 
 INITIAL HNEW IS AN EXACT SOLUTION.

 NO OUTPUT CONTROL FOR STRESS PERIOD   25   TIME STEP 2083

 -------------------------------------------------------------------------------
                             SWR1 OUTPUT PRINT TIMES
                        STRESS PERIOD   25   TIME STEP  2083
 --------------- --------------- --------------- --------------- ---------------
     0.33636E+06                                                                
 -------------------------------------------------------------------------------
 
 SOLVING FOR HEAD 
 INITIAL HNEW IS AN EXACT SOLUTION.

 NO OUTPUT CONTROL FOR STRESS PERIOD   25   TIME STEP 2084

 -------------------------------------------------------------------------------
                             SWR1 OUTPUT PRINT TIMES
                        STRESS PERIOD   25   TIME STEP  2084
 --------------- --------------- --------------- --------------- ---------------
     0.33648E+06                                                                
 -------------------------------------------------------------------------------
 
 SOLVING FOR HEAD 
 INITIAL HNEW IS AN EXACT SOLUTION.

 NO OUTPUT CONTROL FOR STRESS PERIOD   25   TIME STEP 2085

 -------------------------------------------------------------------------------
                             SWR1 OUTPUT PRINT TIMES
                        STRESS PERIOD   25   TIME STEP  2085
 --------------- --------------- --------------- --------------- ---------------
     0.33660E+06                                                                
 -------------------------------------------------------------------------------
 
 SOLVING FOR HEAD 
 INITIAL HNEW IS AN EXACT SOLUTION.

 NO OUTPUT CONTROL FOR STRESS PERIOD   25   TIME STEP 2086

 -------------------------------------------------------------------------------
                             SWR1 OUTPUT PRINT TIMES
                        STRESS PERIOD   25   TIME STEP  2086
 --------------- --------------- --------------- --------------- ---------------
     0.33672E+06                                                                
 -------------------------------------------------------------------------------
 
 SOLVING FOR HEAD 
 INITIAL HNEW IS AN EXACT SOLUTION.

 NO OUTPUT CONTROL FOR STRESS PERIOD   25   TIME STEP 2087

 -------------------------------------------------------------------------------
                             SWR1 OUTPUT PRINT TIMES
                        STRESS PERIOD   25   TIME STEP  2087
 --------------- --------------- --------------- --------------- ---------------
     0.33684E+06                                                                
 -------------------------------------------------------------------------------
 
 SOLVING FOR HEAD 
 INITIAL HNEW IS AN EXACT SOLUTION.

 NO OUTPUT CONTROL FOR STRESS PERIOD   25   TIME STEP 2088

 -------------------------------------------------------------------------------
                             SWR1 OUTPUT PRINT TIMES
                        STRESS PERIOD   25   TIME STEP  2088
 --------------- --------------- --------------- --------------- ---------------
     0.33696E+06                                                                
 -------------------------------------------------------------------------------
 
 SOLVING FOR HEAD 
 INITIAL HNEW IS AN EXACT SOLUTION.

 NO OUTPUT CONTROL FOR STRESS PERIOD   25   TIME STEP 2089

 -------------------------------------------------------------------------------
                             SWR1 OUTPUT PRINT TIMES
                        STRESS PERIOD   25   TIME STEP  2089
 --------------- --------------- --------------- --------------- ---------------
     0.33708E+06                                                                
 -------------------------------------------------------------------------------
 
 SOLVING FOR HEAD 
 INITIAL HNEW IS AN EXACT SOLUTION.

 NO OUTPUT CONTROL FOR STRESS PERIOD   25   TIME STEP 2090

 -------------------------------------------------------------------------------
                             SWR1 OUTPUT PRINT TIMES
                        STRESS PERIOD   25   TIME STEP  2090
 --------------- --------------- --------------- --------------- ---------------
     0.33720E+06                                                                
 -------------------------------------------------------------------------------
 
 SOLVING FOR HEAD 
 INITIAL HNEW IS AN EXACT SOLUTION.

 NO OUTPUT CONTROL FOR STRESS PERIOD   25   TIME STEP 2091

 -------------------------------------------------------------------------------
                             SWR1 OUTPUT PRINT TIMES
                        STRESS PERIOD   25   TIME STEP  2091
 --------------- --------------- --------------- --------------- ---------------
     0.33732E+06                                                                
 -------------------------------------------------------------------------------
 
 SOLVING FOR HEAD 
 INITIAL HNEW IS AN EXACT SOLUTION.

 NO OUTPUT CONTROL FOR STRESS PERIOD   25   TIME STEP 2092

 -------------------------------------------------------------------------------
                             SWR1 OUTPUT PRINT TIMES
                        STRESS PERIOD   25   TIME STEP  2092
 --------------- --------------- --------------- --------------- ---------------
     0.33744E+06                                                                
 -------------------------------------------------------------------------------
 
 SOLVING FOR HEAD 
 INITIAL HNEW IS AN EXACT SOLUTION.

 NO OUTPUT CONTROL FOR STRESS PERIOD   25   TIME STEP 2093

 -------------------------------------------------------------------------------
                             SWR1 OUTPUT PRINT TIMES
                        STRESS PERIOD   25   TIME STEP  2093
 --------------- --------------- --------------- --------------- ---------------
     0.33756E+06                                                                
 -------------------------------------------------------------------------------
 
 SOLVING FOR HEAD 
 INITIAL HNEW IS AN EXACT SOLUTION.

 NO OUTPUT CONTROL FOR STRESS PERIOD   25   TIME STEP 2094

 -------------------------------------------------------------------------------
                             SWR1 OUTPUT PRINT TIMES
                        STRESS PERIOD   25   TIME STEP  2094
 --------------- --------------- --------------- --------------- ---------------
     0.33768E+06                                                                
 -------------------------------------------------------------------------------
 
 SOLVING FOR HEAD 
 INITIAL HNEW IS AN EXACT SOLUTION.

 NO OUTPUT CONTROL FOR STRESS PERIOD   25   TIME STEP 2095

 -------------------------------------------------------------------------------
                             SWR1 OUTPUT PRINT TIMES
                        STRESS PERIOD   25   TIME STEP  2095
 --------------- --------------- --------------- --------------- ---------------
     0.33780E+06                                                                
 -------------------------------------------------------------------------------
 
 SOLVING FOR HEAD 
 INITIAL HNEW IS AN EXACT SOLUTION.

 NO OUTPUT CONTROL FOR STRESS PERIOD   25   TIME STEP 2096

 -------------------------------------------------------------------------------
                             SWR1 OUTPUT PRINT TIMES
                        STRESS PERIOD   25   TIME STEP  2096
 --------------- --------------- --------------- --------------- ---------------
     0.33792E+06                                                                
 -------------------------------------------------------------------------------
 
 SOLVING FOR HEAD 
 INITIAL HNEW IS AN EXACT SOLUTION.

 NO OUTPUT CONTROL FOR STRESS PERIOD   25   TIME STEP 2097

 -------------------------------------------------------------------------------
                             SWR1 OUTPUT PRINT TIMES
                        STRESS PERIOD   25   TIME STEP  2097
 --------------- --------------- --------------- --------------- ---------------
     0.33804E+06                                                                
 -------------------------------------------------------------------------------
 
 SOLVING FOR HEAD 
 INITIAL HNEW IS AN EXACT SOLUTION.

 NO OUTPUT CONTROL FOR STRESS PERIOD   25   TIME STEP 2098

 -------------------------------------------------------------------------------
                             SWR1 OUTPUT PRINT TIMES
                        STRESS PERIOD   25   TIME STEP  2098
 --------------- --------------- --------------- --------------- ---------------
     0.33816E+06                                                                
 -------------------------------------------------------------------------------
 
 SOLVING FOR HEAD 
 INITIAL HNEW IS AN EXACT SOLUTION.

 NO OUTPUT CONTROL FOR STRESS PERIOD   25   TIME STEP 2099

 -------------------------------------------------------------------------------
                             SWR1 OUTPUT PRINT TIMES
                        STRESS PERIOD   25   TIME STEP  2099
 --------------- --------------- --------------- --------------- ---------------
     0.33828E+06                                                                
 -------------------------------------------------------------------------------
 
 SOLVING FOR HEAD 
 INITIAL HNEW IS AN EXACT SOLUTION.

 NO OUTPUT CONTROL FOR STRESS PERIOD   25   TIME STEP 2100

 -------------------------------------------------------------------------------
                             SWR1 OUTPUT PRINT TIMES
                        STRESS PERIOD   25   TIME STEP  2100
 --------------- --------------- --------------- --------------- ---------------
     0.33840E+06                                                                
 -------------------------------------------------------------------------------
 
 SOLVING FOR HEAD 
 INITIAL HNEW IS AN EXACT SOLUTION.

 NO OUTPUT CONTROL FOR STRESS PERIOD   25   TIME STEP 2101

 -------------------------------------------------------------------------------
                             SWR1 OUTPUT PRINT TIMES
                        STRESS PERIOD   25   TIME STEP  2101
 --------------- --------------- --------------- --------------- ---------------
     0.33852E+06                                                                
 -------------------------------------------------------------------------------
 
 SOLVING FOR HEAD 
 INITIAL HNEW IS AN EXACT SOLUTION.

 NO OUTPUT CONTROL FOR STRESS PERIOD   25   TIME STEP 2102

 -------------------------------------------------------------------------------
                             SWR1 OUTPUT PRINT TIMES
                        STRESS PERIOD   25   TIME STEP  2102
 --------------- --------------- --------------- --------------- ---------------
     0.33864E+06                                                                
 -------------------------------------------------------------------------------
 
 SOLVING FOR HEAD 
 INITIAL HNEW IS AN EXACT SOLUTION.

 NO OUTPUT CONTROL FOR STRESS PERIOD   25   TIME STEP 2103

 -------------------------------------------------------------------------------
                             SWR1 OUTPUT PRINT TIMES
                        STRESS PERIOD   25   TIME STEP  2103
 --------------- --------------- --------------- --------------- ---------------
     0.33876E+06                                                                
 -------------------------------------------------------------------------------
 
 SOLVING FOR HEAD 
 INITIAL HNEW IS AN EXACT SOLUTION.

 NO OUTPUT CONTROL FOR STRESS PERIOD   25   TIME STEP 2104

 -------------------------------------------------------------------------------
                             SWR1 OUTPUT PRINT TIMES
                        STRESS PERIOD   25   TIME STEP  2104
 --------------- --------------- --------------- --------------- ---------------
     0.33888E+06                                                                
 -------------------------------------------------------------------------------
 
 SOLVING FOR HEAD 
 INITIAL HNEW IS AN EXACT SOLUTION.

 NO OUTPUT CONTROL FOR STRESS PERIOD   25   TIME STEP 2105

 -------------------------------------------------------------------------------
                             SWR1 OUTPUT PRINT TIMES
                        STRESS PERIOD   25   TIME STEP  2105
 --------------- --------------- --------------- --------------- ---------------
     0.33900E+06                                                                
 -------------------------------------------------------------------------------
 
 SOLVING FOR HEAD 
 INITIAL HNEW IS AN EXACT SOLUTION.

 NO OUTPUT CONTROL FOR STRESS PERIOD   25   TIME STEP 2106

 -------------------------------------------------------------------------------
                             SWR1 OUTPUT PRINT TIMES
                        STRESS PERIOD   25   TIME STEP  2106
 --------------- --------------- --------------- --------------- ---------------
     0.33912E+06                                                                
 -------------------------------------------------------------------------------
 
 SOLVING FOR HEAD 
 INITIAL HNEW IS AN EXACT SOLUTION.

 NO OUTPUT CONTROL FOR STRESS PERIOD   25   TIME STEP 2107

 -------------------------------------------------------------------------------
                             SWR1 OUTPUT PRINT TIMES
                        STRESS PERIOD   25   TIME STEP  2107
 --------------- --------------- --------------- --------------- ---------------
     0.33924E+06                                                                
 -------------------------------------------------------------------------------
 
 SOLVING FOR HEAD 
 INITIAL HNEW IS AN EXACT SOLUTION.

 NO OUTPUT CONTROL FOR STRESS PERIOD   25   TIME STEP 2108

 -------------------------------------------------------------------------------
                             SWR1 OUTPUT PRINT TIMES
                        STRESS PERIOD   25   TIME STEP  2108
 --------------- --------------- --------------- --------------- ---------------
     0.33936E+06                                                                
 -------------------------------------------------------------------------------
 
 SOLVING FOR HEAD 
 INITIAL HNEW IS AN EXACT SOLUTION.

 NO OUTPUT CONTROL FOR STRESS PERIOD   25   TIME STEP 2109

 -------------------------------------------------------------------------------
                             SWR1 OUTPUT PRINT TIMES
                        STRESS PERIOD   25   TIME STEP  2109
 --------------- --------------- --------------- --------------- ---------------
     0.33948E+06                                                                
 -------------------------------------------------------------------------------
 
 SOLVING FOR HEAD 
 INITIAL HNEW IS AN EXACT SOLUTION.

 NO OUTPUT CONTROL FOR STRESS PERIOD   25   TIME STEP 2110

 -------------------------------------------------------------------------------
                             SWR1 OUTPUT PRINT TIMES
                        STRESS PERIOD   25   TIME STEP  2110
 --------------- --------------- --------------- --------------- ---------------
     0.33960E+06                                                                
 -------------------------------------------------------------------------------
 
 SOLVING FOR HEAD 
 INITIAL HNEW IS AN EXACT SOLUTION.

 NO OUTPUT CONTROL FOR STRESS PERIOD   25   TIME STEP 2111

 -------------------------------------------------------------------------------
                             SWR1 OUTPUT PRINT TIMES
                        STRESS PERIOD   25   TIME STEP  2111
 --------------- --------------- --------------- --------------- ---------------
     0.33972E+06                                                                
 -------------------------------------------------------------------------------
 
 SOLVING FOR HEAD 
 INITIAL HNEW IS AN EXACT SOLUTION.

 NO OUTPUT CONTROL FOR STRESS PERIOD   25   TIME STEP 2112

 -------------------------------------------------------------------------------
                             SWR1 OUTPUT PRINT TIMES
                        STRESS PERIOD   25   TIME STEP  2112
 --------------- --------------- --------------- --------------- ---------------
     0.33984E+06                                                                
 -------------------------------------------------------------------------------
 
 SOLVING FOR HEAD 
 INITIAL HNEW IS AN EXACT SOLUTION.

 NO OUTPUT CONTROL FOR STRESS PERIOD   25   TIME STEP 2113

 -------------------------------------------------------------------------------
                             SWR1 OUTPUT PRINT TIMES
                        STRESS PERIOD   25   TIME STEP  2113
 --------------- --------------- --------------- --------------- ---------------
     0.33996E+06                                                                
 -------------------------------------------------------------------------------
 
 SOLVING FOR HEAD 
 INITIAL HNEW IS AN EXACT SOLUTION.

 NO OUTPUT CONTROL FOR STRESS PERIOD   25   TIME STEP 2114

 -------------------------------------------------------------------------------
                             SWR1 OUTPUT PRINT TIMES
                        STRESS PERIOD   25   TIME STEP  2114
 --------------- --------------- --------------- --------------- ---------------
     0.34008E+06                                                                
 -------------------------------------------------------------------------------
 
 SOLVING FOR HEAD 
 INITIAL HNEW IS AN EXACT SOLUTION.

 NO OUTPUT CONTROL FOR STRESS PERIOD   25   TIME STEP 2115

 -------------------------------------------------------------------------------
                             SWR1 OUTPUT PRINT TIMES
                        STRESS PERIOD   25   TIME STEP  2115
 --------------- --------------- --------------- --------------- ---------------
     0.34020E+06                                                                
 -------------------------------------------------------------------------------
 
 SOLVING FOR HEAD 
 INITIAL HNEW IS AN EXACT SOLUTION.

 NO OUTPUT CONTROL FOR STRESS PERIOD   25   TIME STEP 2116

 -------------------------------------------------------------------------------
                             SWR1 OUTPUT PRINT TIMES
                        STRESS PERIOD   25   TIME STEP  2116
 --------------- --------------- --------------- --------------- ---------------
     0.34032E+06                                                                
 -------------------------------------------------------------------------------
 
 SOLVING FOR HEAD 
 INITIAL HNEW IS AN EXACT SOLUTION.

 NO OUTPUT CONTROL FOR STRESS PERIOD   25   TIME STEP 2117

 -------------------------------------------------------------------------------
                             SWR1 OUTPUT PRINT TIMES
                        STRESS PERIOD   25   TIME STEP  2117
 --------------- --------------- --------------- --------------- ---------------
     0.34044E+06                                                                
 -------------------------------------------------------------------------------
 
 SOLVING FOR HEAD 
 INITIAL HNEW IS AN EXACT SOLUTION.

 NO OUTPUT CONTROL FOR STRESS PERIOD   25   TIME STEP 2118

 -------------------------------------------------------------------------------
                             SWR1 OUTPUT PRINT TIMES
                        STRESS PERIOD   25   TIME STEP  2118
 --------------- --------------- --------------- --------------- ---------------
     0.34056E+06                                                                
 -------------------------------------------------------------------------------
 
 SOLVING FOR HEAD 
 INITIAL HNEW IS AN EXACT SOLUTION.

 NO OUTPUT CONTROL FOR STRESS PERIOD   25   TIME STEP 2119

 -------------------------------------------------------------------------------
                             SWR1 OUTPUT PRINT TIMES
                        STRESS PERIOD   25   TIME STEP  2119
 --------------- --------------- --------------- --------------- ---------------
     0.34068E+06                                                                
 -------------------------------------------------------------------------------
 
 SOLVING FOR HEAD 
 INITIAL HNEW IS AN EXACT SOLUTION.

 NO OUTPUT CONTROL FOR STRESS PERIOD   25   TIME STEP 2120

 -------------------------------------------------------------------------------
                             SWR1 OUTPUT PRINT TIMES
                        STRESS PERIOD   25   TIME STEP  2120
 --------------- --------------- --------------- --------------- ---------------
     0.34080E+06                                                                
 -------------------------------------------------------------------------------
 
 SOLVING FOR HEAD 
 INITIAL HNEW IS AN EXACT SOLUTION.

 NO OUTPUT CONTROL FOR STRESS PERIOD   25   TIME STEP 2121

 -------------------------------------------------------------------------------
                             SWR1 OUTPUT PRINT TIMES
                        STRESS PERIOD   25   TIME STEP  2121
 --------------- --------------- --------------- --------------- ---------------
     0.34092E+06                                                                
 -------------------------------------------------------------------------------
 
 SOLVING FOR HEAD 
 INITIAL HNEW IS AN EXACT SOLUTION.

 NO OUTPUT CONTROL FOR STRESS PERIOD   25   TIME STEP 2122

 -------------------------------------------------------------------------------
                             SWR1 OUTPUT PRINT TIMES
                        STRESS PERIOD   25   TIME STEP  2122
 --------------- --------------- --------------- --------------- ---------------
     0.34104E+06                                                                
 -------------------------------------------------------------------------------
 
 SOLVING FOR HEAD 
 INITIAL HNEW IS AN EXACT SOLUTION.

 NO OUTPUT CONTROL FOR STRESS PERIOD   25   TIME STEP 2123

 -------------------------------------------------------------------------------
                             SWR1 OUTPUT PRINT TIMES
                        STRESS PERIOD   25   TIME STEP  2123
 --------------- --------------- --------------- --------------- ---------------
     0.34116E+06                                                                
 -------------------------------------------------------------------------------
 
 SOLVING FOR HEAD 
 INITIAL HNEW IS AN EXACT SOLUTION.

 NO OUTPUT CONTROL FOR STRESS PERIOD   25   TIME STEP 2124

 -------------------------------------------------------------------------------
                             SWR1 OUTPUT PRINT TIMES
                        STRESS PERIOD   25   TIME STEP  2124
 --------------- --------------- --------------- --------------- ---------------
     0.34128E+06                                                                
 -------------------------------------------------------------------------------
 
 SOLVING FOR HEAD 
 INITIAL HNEW IS AN EXACT SOLUTION.

 NO OUTPUT CONTROL FOR STRESS PERIOD   25   TIME STEP 2125

 -------------------------------------------------------------------------------
                             SWR1 OUTPUT PRINT TIMES
                        STRESS PERIOD   25   TIME STEP  2125
 --------------- --------------- --------------- --------------- ---------------
     0.34140E+06                                                                
 -------------------------------------------------------------------------------
 
 SOLVING FOR HEAD 
 INITIAL HNEW IS AN EXACT SOLUTION.

 NO OUTPUT CONTROL FOR STRESS PERIOD   25   TIME STEP 2126

 -------------------------------------------------------------------------------
                             SWR1 OUTPUT PRINT TIMES
                        STRESS PERIOD   25   TIME STEP  2126
 --------------- --------------- --------------- --------------- ---------------
     0.34152E+06                                                                
 -------------------------------------------------------------------------------
 
 SOLVING FOR HEAD 
 INITIAL HNEW IS AN EXACT SOLUTION.

 NO OUTPUT CONTROL FOR STRESS PERIOD   25   TIME STEP 2127

 -------------------------------------------------------------------------------
                             SWR1 OUTPUT PRINT TIMES
                        STRESS PERIOD   25   TIME STEP  2127
 --------------- --------------- --------------- --------------- ---------------
     0.34164E+06                                                                
 -------------------------------------------------------------------------------
 
 SOLVING FOR HEAD 
 INITIAL HNEW IS AN EXACT SOLUTION.

 NO OUTPUT CONTROL FOR STRESS PERIOD   25   TIME STEP 2128

 -------------------------------------------------------------------------------
                             SWR1 OUTPUT PRINT TIMES
                        STRESS PERIOD   25   TIME STEP  2128
 --------------- --------------- --------------- --------------- ---------------
     0.34176E+06                                                                
 -------------------------------------------------------------------------------
 
 SOLVING FOR HEAD 
 INITIAL HNEW IS AN EXACT SOLUTION.

 NO OUTPUT CONTROL FOR STRESS PERIOD   25   TIME STEP 2129

 -------------------------------------------------------------------------------
                             SWR1 OUTPUT PRINT TIMES
                        STRESS PERIOD   25   TIME STEP  2129
 --------------- --------------- --------------- --------------- ---------------
     0.34188E+06                                                                
 -------------------------------------------------------------------------------
 
 SOLVING FOR HEAD 
 INITIAL HNEW IS AN EXACT SOLUTION.

 NO OUTPUT CONTROL FOR STRESS PERIOD   25   TIME STEP 2130

 -------------------------------------------------------------------------------
                             SWR1 OUTPUT PRINT TIMES
                        STRESS PERIOD   25   TIME STEP  2130
 --------------- --------------- --------------- --------------- ---------------
     0.34200E+06                                                                
 -------------------------------------------------------------------------------
 
 SOLVING FOR HEAD 
 INITIAL HNEW IS AN EXACT SOLUTION.

 NO OUTPUT CONTROL FOR STRESS PERIOD   25   TIME STEP 2131

 -------------------------------------------------------------------------------
                             SWR1 OUTPUT PRINT TIMES
                        STRESS PERIOD   25   TIME STEP  2131
 --------------- --------------- --------------- --------------- ---------------
     0.34212E+06                                                                
 -------------------------------------------------------------------------------
 
 SOLVING FOR HEAD 
 INITIAL HNEW IS AN EXACT SOLUTION.

 NO OUTPUT CONTROL FOR STRESS PERIOD   25   TIME STEP 2132

 -------------------------------------------------------------------------------
                             SWR1 OUTPUT PRINT TIMES
                        STRESS PERIOD   25   TIME STEP  2132
 --------------- --------------- --------------- --------------- ---------------
     0.34224E+06                                                                
 -------------------------------------------------------------------------------
 
 SOLVING FOR HEAD 
 INITIAL HNEW IS AN EXACT SOLUTION.

 NO OUTPUT CONTROL FOR STRESS PERIOD   25   TIME STEP 2133

 -------------------------------------------------------------------------------
                             SWR1 OUTPUT PRINT TIMES
                        STRESS PERIOD   25   TIME STEP  2133
 --------------- --------------- --------------- --------------- ---------------
     0.34236E+06                                                                
 -------------------------------------------------------------------------------
 
 SOLVING FOR HEAD 
 INITIAL HNEW IS AN EXACT SOLUTION.

 NO OUTPUT CONTROL FOR STRESS PERIOD   25   TIME STEP 2134

 -------------------------------------------------------------------------------
                             SWR1 OUTPUT PRINT TIMES
                        STRESS PERIOD   25   TIME STEP  2134
 --------------- --------------- --------------- --------------- ---------------
     0.34248E+06                                                                
 -------------------------------------------------------------------------------
 
 SOLVING FOR HEAD 
 INITIAL HNEW IS AN EXACT SOLUTION.

 NO OUTPUT CONTROL FOR STRESS PERIOD   25   TIME STEP 2135

 -------------------------------------------------------------------------------
                             SWR1 OUTPUT PRINT TIMES
                        STRESS PERIOD   25   TIME STEP  2135
 --------------- --------------- --------------- --------------- ---------------
     0.34260E+06                                                                
 -------------------------------------------------------------------------------
 
 SOLVING FOR HEAD 
 INITIAL HNEW IS AN EXACT SOLUTION.

 NO OUTPUT CONTROL FOR STRESS PERIOD   25   TIME STEP 2136

 -------------------------------------------------------------------------------
                             SWR1 OUTPUT PRINT TIMES
                        STRESS PERIOD   25   TIME STEP  2136
 --------------- --------------- --------------- --------------- ---------------
     0.34272E+06                                                                
 -------------------------------------------------------------------------------
 
 SOLVING FOR HEAD 
 INITIAL HNEW IS AN EXACT SOLUTION.

 NO OUTPUT CONTROL FOR STRESS PERIOD   25   TIME STEP 2137

 -------------------------------------------------------------------------------
                             SWR1 OUTPUT PRINT TIMES
                        STRESS PERIOD   25   TIME STEP  2137
 --------------- --------------- --------------- --------------- ---------------
     0.34284E+06                                                                
 -------------------------------------------------------------------------------
 
 SOLVING FOR HEAD 
 INITIAL HNEW IS AN EXACT SOLUTION.

 NO OUTPUT CONTROL FOR STRESS PERIOD   25   TIME STEP 2138

 -------------------------------------------------------------------------------
                             SWR1 OUTPUT PRINT TIMES
                        STRESS PERIOD   25   TIME STEP  2138
 --------------- --------------- --------------- --------------- ---------------
     0.34296E+06                                                                
 -------------------------------------------------------------------------------
 
 SOLVING FOR HEAD 
 INITIAL HNEW IS AN EXACT SOLUTION.

 NO OUTPUT CONTROL FOR STRESS PERIOD   25   TIME STEP 2139

 -------------------------------------------------------------------------------
                             SWR1 OUTPUT PRINT TIMES
                        STRESS PERIOD   25   TIME STEP  2139
 --------------- --------------- --------------- --------------- ---------------
     0.34308E+06                                                                
 -------------------------------------------------------------------------------
 
 SOLVING FOR HEAD 
 INITIAL HNEW IS AN EXACT SOLUTION.

 NO OUTPUT CONTROL FOR STRESS PERIOD   25   TIME STEP 2140

 -------------------------------------------------------------------------------
                             SWR1 OUTPUT PRINT TIMES
                        STRESS PERIOD   25   TIME STEP  2140
 --------------- --------------- --------------- --------------- ---------------
     0.34320E+06                                                                
 -------------------------------------------------------------------------------
 
 SOLVING FOR HEAD 
 INITIAL HNEW IS AN EXACT SOLUTION.

 NO OUTPUT CONTROL FOR STRESS PERIOD   25   TIME STEP 2141

 -------------------------------------------------------------------------------
                             SWR1 OUTPUT PRINT TIMES
                        STRESS PERIOD   25   TIME STEP  2141
 --------------- --------------- --------------- --------------- ---------------
     0.34332E+06                                                                
 -------------------------------------------------------------------------------
 
 SOLVING FOR HEAD 
 INITIAL HNEW IS AN EXACT SOLUTION.

 NO OUTPUT CONTROL FOR STRESS PERIOD   25   TIME STEP 2142

 -------------------------------------------------------------------------------
                             SWR1 OUTPUT PRINT TIMES
                        STRESS PERIOD   25   TIME STEP  2142
 --------------- --------------- --------------- --------------- ---------------
     0.34344E+06                                                                
 -------------------------------------------------------------------------------
 
 SOLVING FOR HEAD 
 INITIAL HNEW IS AN EXACT SOLUTION.

 NO OUTPUT CONTROL FOR STRESS PERIOD   25   TIME STEP 2143

 -------------------------------------------------------------------------------
                             SWR1 OUTPUT PRINT TIMES
                        STRESS PERIOD   25   TIME STEP  2143
 --------------- --------------- --------------- --------------- ---------------
     0.34356E+06                                                                
 -------------------------------------------------------------------------------
 
 SOLVING FOR HEAD 
 INITIAL HNEW IS AN EXACT SOLUTION.

 NO OUTPUT CONTROL FOR STRESS PERIOD   25   TIME STEP 2144

 -------------------------------------------------------------------------------
                             SWR1 OUTPUT PRINT TIMES
                        STRESS PERIOD   25   TIME STEP  2144
 --------------- --------------- --------------- --------------- ---------------
     0.34368E+06                                                                
 -------------------------------------------------------------------------------
 
 SOLVING FOR HEAD 
 INITIAL HNEW IS AN EXACT SOLUTION.

 NO OUTPUT CONTROL FOR STRESS PERIOD   25   TIME STEP 2145

 -------------------------------------------------------------------------------
                             SWR1 OUTPUT PRINT TIMES
                        STRESS PERIOD   25   TIME STEP  2145
 --------------- --------------- --------------- --------------- ---------------
     0.34380E+06                                                                
 -------------------------------------------------------------------------------
 
 SOLVING FOR HEAD 
 INITIAL HNEW IS AN EXACT SOLUTION.

 NO OUTPUT CONTROL FOR STRESS PERIOD   25   TIME STEP 2146

 -------------------------------------------------------------------------------
                             SWR1 OUTPUT PRINT TIMES
                        STRESS PERIOD   25   TIME STEP  2146
 --------------- --------------- --------------- --------------- ---------------
     0.34392E+06                                                                
 -------------------------------------------------------------------------------
 
 SOLVING FOR HEAD 
 INITIAL HNEW IS AN EXACT SOLUTION.

 NO OUTPUT CONTROL FOR STRESS PERIOD   25   TIME STEP 2147

 -------------------------------------------------------------------------------
                             SWR1 OUTPUT PRINT TIMES
                        STRESS PERIOD   25   TIME STEP  2147
 --------------- --------------- --------------- --------------- ---------------
     0.34404E+06                                                                
 -------------------------------------------------------------------------------
 
 SOLVING FOR HEAD 
 INITIAL HNEW IS AN EXACT SOLUTION.

 NO OUTPUT CONTROL FOR STRESS PERIOD   25   TIME STEP 2148

 -------------------------------------------------------------------------------
                             SWR1 OUTPUT PRINT TIMES
                        STRESS PERIOD   25   TIME STEP  2148
 --------------- --------------- --------------- --------------- ---------------
     0.34416E+06                                                                
 -------------------------------------------------------------------------------
 
 SOLVING FOR HEAD 
 INITIAL HNEW IS AN EXACT SOLUTION.

 NO OUTPUT CONTROL FOR STRESS PERIOD   25   TIME STEP 2149

 -------------------------------------------------------------------------------
                             SWR1 OUTPUT PRINT TIMES
                        STRESS PERIOD   25   TIME STEP  2149
 --------------- --------------- --------------- --------------- ---------------
     0.34428E+06                                                                
 -------------------------------------------------------------------------------
 
 SOLVING FOR HEAD 
 INITIAL HNEW IS AN EXACT SOLUTION.

 NO OUTPUT CONTROL FOR STRESS PERIOD   25   TIME STEP 2150

 -------------------------------------------------------------------------------
                             SWR1 OUTPUT PRINT TIMES
                        STRESS PERIOD   25   TIME STEP  2150
 --------------- --------------- --------------- --------------- ---------------
     0.34440E+06                                                                
 -------------------------------------------------------------------------------
 
 SOLVING FOR HEAD 
 INITIAL HNEW IS AN EXACT SOLUTION.

 NO OUTPUT CONTROL FOR STRESS PERIOD   25   TIME STEP 2151

 -------------------------------------------------------------------------------
                             SWR1 OUTPUT PRINT TIMES
                        STRESS PERIOD   25   TIME STEP  2151
 --------------- --------------- --------------- --------------- ---------------
     0.34452E+06                                                                
 -------------------------------------------------------------------------------
 
 SOLVING FOR HEAD 
 INITIAL HNEW IS AN EXACT SOLUTION.

 NO OUTPUT CONTROL FOR STRESS PERIOD   25   TIME STEP 2152

 -------------------------------------------------------------------------------
                             SWR1 OUTPUT PRINT TIMES
                        STRESS PERIOD   25   TIME STEP  2152
 --------------- --------------- --------------- --------------- ---------------
     0.34464E+06                                                                
 -------------------------------------------------------------------------------
 
 SOLVING FOR HEAD 
 INITIAL HNEW IS AN EXACT SOLUTION.

 NO OUTPUT CONTROL FOR STRESS PERIOD   25   TIME STEP 2153

 -------------------------------------------------------------------------------
                             SWR1 OUTPUT PRINT TIMES
                        STRESS PERIOD   25   TIME STEP  2153
 --------------- --------------- --------------- --------------- ---------------
     0.34476E+06                                                                
 -------------------------------------------------------------------------------
 
 SOLVING FOR HEAD 
 INITIAL HNEW IS AN EXACT SOLUTION.

 NO OUTPUT CONTROL FOR STRESS PERIOD   25   TIME STEP 2154

 -------------------------------------------------------------------------------
                             SWR1 OUTPUT PRINT TIMES
                        STRESS PERIOD   25   TIME STEP  2154
 --------------- --------------- --------------- --------------- ---------------
     0.34488E+06                                                                
 -------------------------------------------------------------------------------
 
 SOLVING FOR HEAD 
 INITIAL HNEW IS AN EXACT SOLUTION.

 NO OUTPUT CONTROL FOR STRESS PERIOD   25   TIME STEP 2155

 -------------------------------------------------------------------------------
                             SWR1 OUTPUT PRINT TIMES
                        STRESS PERIOD   25   TIME STEP  2155
 --------------- --------------- --------------- --------------- ---------------
     0.34500E+06                                                                
 -------------------------------------------------------------------------------
 
 SOLVING FOR HEAD 
 INITIAL HNEW IS AN EXACT SOLUTION.

 NO OUTPUT CONTROL FOR STRESS PERIOD   25   TIME STEP 2156

 -------------------------------------------------------------------------------
                             SWR1 OUTPUT PRINT TIMES
                        STRESS PERIOD   25   TIME STEP  2156
 --------------- --------------- --------------- --------------- ---------------
     0.34512E+06                                                                
 -------------------------------------------------------------------------------
 
 SOLVING FOR HEAD 
 INITIAL HNEW IS AN EXACT SOLUTION.

 NO OUTPUT CONTROL FOR STRESS PERIOD   25   TIME STEP 2157

 -------------------------------------------------------------------------------
                             SWR1 OUTPUT PRINT TIMES
                        STRESS PERIOD   25   TIME STEP  2157
 --------------- --------------- --------------- --------------- ---------------
     0.34524E+06                                                                
 -------------------------------------------------------------------------------
 
 SOLVING FOR HEAD 
 INITIAL HNEW IS AN EXACT SOLUTION.

 NO OUTPUT CONTROL FOR STRESS PERIOD   25   TIME STEP 2158

 -------------------------------------------------------------------------------
                             SWR1 OUTPUT PRINT TIMES
                        STRESS PERIOD   25   TIME STEP  2158
 --------------- --------------- --------------- --------------- ---------------
     0.34536E+06                                                                
 -------------------------------------------------------------------------------
 
 SOLVING FOR HEAD 
 INITIAL HNEW IS AN EXACT SOLUTION.

 NO OUTPUT CONTROL FOR STRESS PERIOD   25   TIME STEP 2159

 -------------------------------------------------------------------------------
                             SWR1 OUTPUT PRINT TIMES
                        STRESS PERIOD   25   TIME STEP  2159
 --------------- --------------- --------------- --------------- ---------------
     0.34548E+06                                                                
 -------------------------------------------------------------------------------
 
 SOLVING FOR HEAD 
 INITIAL HNEW IS AN EXACT SOLUTION.

 NO OUTPUT CONTROL FOR STRESS PERIOD   25   TIME STEP 2160

 -------------------------------------------------------------------------------
                             SWR1 OUTPUT PRINT TIMES
                        STRESS PERIOD   25   TIME STEP  2160
 --------------- --------------- --------------- --------------- ---------------
     0.34560E+06                                                                
 -------------------------------------------------------------------------------
 
 SOLVING FOR HEAD 
 INITIAL HNEW IS AN EXACT SOLUTION.

 NO OUTPUT CONTROL FOR STRESS PERIOD   25   TIME STEP 2161

 -------------------------------------------------------------------------------
                             SWR1 OUTPUT PRINT TIMES
                        STRESS PERIOD   25   TIME STEP  2161
 --------------- --------------- --------------- --------------- ---------------
     0.34572E+06                                                                
 -------------------------------------------------------------------------------
 
 SOLVING FOR HEAD 
 INITIAL HNEW IS AN EXACT SOLUTION.

 NO OUTPUT CONTROL FOR STRESS PERIOD   25   TIME STEP 2162

 -------------------------------------------------------------------------------
                             SWR1 OUTPUT PRINT TIMES
                        STRESS PERIOD   25   TIME STEP  2162
 --------------- --------------- --------------- --------------- ---------------
     0.34584E+06                                                                
 -------------------------------------------------------------------------------
 
 SOLVING FOR HEAD 
 INITIAL HNEW IS AN EXACT SOLUTION.

 NO OUTPUT CONTROL FOR STRESS PERIOD   25   TIME STEP 2163

 -------------------------------------------------------------------------------
                             SWR1 OUTPUT PRINT TIMES
                        STRESS PERIOD   25   TIME STEP  2163
 --------------- --------------- --------------- --------------- ---------------
     0.34596E+06                                                                
 -------------------------------------------------------------------------------
 
 SOLVING FOR HEAD 
 INITIAL HNEW IS AN EXACT SOLUTION.

 NO OUTPUT CONTROL FOR STRESS PERIOD   25   TIME STEP 2164

 -------------------------------------------------------------------------------
                             SWR1 OUTPUT PRINT TIMES
                        STRESS PERIOD   25   TIME STEP  2164
 --------------- --------------- --------------- --------------- ---------------
     0.34608E+06                                                                
 -------------------------------------------------------------------------------
 
 SOLVING FOR HEAD 
 INITIAL HNEW IS AN EXACT SOLUTION.

 NO OUTPUT CONTROL FOR STRESS PERIOD   25   TIME STEP 2165

 -------------------------------------------------------------------------------
                             SWR1 OUTPUT PRINT TIMES
                        STRESS PERIOD   25   TIME STEP  2165
 --------------- --------------- --------------- --------------- ---------------
     0.34620E+06                                                                
 -------------------------------------------------------------------------------
 
 SOLVING FOR HEAD 
 INITIAL HNEW IS AN EXACT SOLUTION.

 NO OUTPUT CONTROL FOR STRESS PERIOD   25   TIME STEP 2166

 -------------------------------------------------------------------------------
                             SWR1 OUTPUT PRINT TIMES
                        STRESS PERIOD   25   TIME STEP  2166
 --------------- --------------- --------------- --------------- ---------------
     0.34632E+06                                                                
 -------------------------------------------------------------------------------
 
 SOLVING FOR HEAD 
 INITIAL HNEW IS AN EXACT SOLUTION.

 NO OUTPUT CONTROL FOR STRESS PERIOD   25   TIME STEP 2167

 -------------------------------------------------------------------------------
                             SWR1 OUTPUT PRINT TIMES
                        STRESS PERIOD   25   TIME STEP  2167
 --------------- --------------- --------------- --------------- ---------------
     0.34644E+06                                                                
 -------------------------------------------------------------------------------
 
 SOLVING FOR HEAD 
 INITIAL HNEW IS AN EXACT SOLUTION.

 NO OUTPUT CONTROL FOR STRESS PERIOD   25   TIME STEP 2168

 -------------------------------------------------------------------------------
                             SWR1 OUTPUT PRINT TIMES
                        STRESS PERIOD   25   TIME STEP  2168
 --------------- --------------- --------------- --------------- ---------------
     0.34656E+06                                                                
 -------------------------------------------------------------------------------
 
 SOLVING FOR HEAD 
 INITIAL HNEW IS AN EXACT SOLUTION.

 NO OUTPUT CONTROL FOR STRESS PERIOD   25   TIME STEP 2169

 -------------------------------------------------------------------------------
                             SWR1 OUTPUT PRINT TIMES
                        STRESS PERIOD   25   TIME STEP  2169
 --------------- --------------- --------------- --------------- ---------------
     0.34668E+06                                                                
 -------------------------------------------------------------------------------
 
 SOLVING FOR HEAD 
 INITIAL HNEW IS AN EXACT SOLUTION.

 NO OUTPUT CONTROL FOR STRESS PERIOD   25   TIME STEP 2170

 -------------------------------------------------------------------------------
                             SWR1 OUTPUT PRINT TIMES
                        STRESS PERIOD   25   TIME STEP  2170
 --------------- --------------- --------------- --------------- ---------------
     0.34680E+06                                                                
 -------------------------------------------------------------------------------
 
 SOLVING FOR HEAD 
 INITIAL HNEW IS AN EXACT SOLUTION.

 NO OUTPUT CONTROL FOR STRESS PERIOD   25   TIME STEP 2171

 -------------------------------------------------------------------------------
                             SWR1 OUTPUT PRINT TIMES
                        STRESS PERIOD   25   TIME STEP  2171
 --------------- --------------- --------------- --------------- ---------------
     0.34692E+06                                                                
 -------------------------------------------------------------------------------
 
 SOLVING FOR HEAD 
 INITIAL HNEW IS AN EXACT SOLUTION.

 NO OUTPUT CONTROL FOR STRESS PERIOD   25   TIME STEP 2172

 -------------------------------------------------------------------------------
                             SWR1 OUTPUT PRINT TIMES
                        STRESS PERIOD   25   TIME STEP  2172
 --------------- --------------- --------------- --------------- ---------------
     0.34704E+06                                                                
 -------------------------------------------------------------------------------
 
 SOLVING FOR HEAD 
 INITIAL HNEW IS AN EXACT SOLUTION.

 NO OUTPUT CONTROL FOR STRESS PERIOD   25   TIME STEP 2173

 -------------------------------------------------------------------------------
                             SWR1 OUTPUT PRINT TIMES
                        STRESS PERIOD   25   TIME STEP  2173
 --------------- --------------- --------------- --------------- ---------------
     0.34716E+06                                                                
 -------------------------------------------------------------------------------
 
 SOLVING FOR HEAD 
 INITIAL HNEW IS AN EXACT SOLUTION.

 NO OUTPUT CONTROL FOR STRESS PERIOD   25   TIME STEP 2174

 -------------------------------------------------------------------------------
                             SWR1 OUTPUT PRINT TIMES
                        STRESS PERIOD   25   TIME STEP  2174
 --------------- --------------- --------------- --------------- ---------------
     0.34728E+06                                                                
 -------------------------------------------------------------------------------
 
 SOLVING FOR HEAD 
 INITIAL HNEW IS AN EXACT SOLUTION.

 NO OUTPUT CONTROL FOR STRESS PERIOD   25   TIME STEP 2175

 -------------------------------------------------------------------------------
                             SWR1 OUTPUT PRINT TIMES
                        STRESS PERIOD   25   TIME STEP  2175
 --------------- --------------- --------------- --------------- ---------------
     0.34740E+06                                                                
 -------------------------------------------------------------------------------
 
 SOLVING FOR HEAD 
 INITIAL HNEW IS AN EXACT SOLUTION.

 NO OUTPUT CONTROL FOR STRESS PERIOD   25   TIME STEP 2176

 -------------------------------------------------------------------------------
                             SWR1 OUTPUT PRINT TIMES
                        STRESS PERIOD   25   TIME STEP  2176
 --------------- --------------- --------------- --------------- ---------------
     0.34752E+06                                                                
 -------------------------------------------------------------------------------
 
 SOLVING FOR HEAD 
 INITIAL HNEW IS AN EXACT SOLUTION.

 NO OUTPUT CONTROL FOR STRESS PERIOD   25   TIME STEP 2177

 -------------------------------------------------------------------------------
                             SWR1 OUTPUT PRINT TIMES
                        STRESS PERIOD   25   TIME STEP  2177
 --------------- --------------- --------------- --------------- ---------------
     0.34764E+06                                                                
 -------------------------------------------------------------------------------
 
 SOLVING FOR HEAD 
 INITIAL HNEW IS AN EXACT SOLUTION.

 NO OUTPUT CONTROL FOR STRESS PERIOD   25   TIME STEP 2178

 -------------------------------------------------------------------------------
                             SWR1 OUTPUT PRINT TIMES
                        STRESS PERIOD   25   TIME STEP  2178
 --------------- --------------- --------------- --------------- ---------------
     0.34776E+06                                                                
 -------------------------------------------------------------------------------
 
 SOLVING FOR HEAD 
 INITIAL HNEW IS AN EXACT SOLUTION.

 NO OUTPUT CONTROL FOR STRESS PERIOD   25   TIME STEP 2179

 -------------------------------------------------------------------------------
                             SWR1 OUTPUT PRINT TIMES
                        STRESS PERIOD   25   TIME STEP  2179
 --------------- --------------- --------------- --------------- ---------------
     0.34788E+06                                                                
 -------------------------------------------------------------------------------
 
 SOLVING FOR HEAD 
 INITIAL HNEW IS AN EXACT SOLUTION.

 NO OUTPUT CONTROL FOR STRESS PERIOD   25   TIME STEP 2180

 -------------------------------------------------------------------------------
                             SWR1 OUTPUT PRINT TIMES
                        STRESS PERIOD   25   TIME STEP  2180
 --------------- --------------- --------------- --------------- ---------------
     0.34800E+06                                                                
 -------------------------------------------------------------------------------
 
 SOLVING FOR HEAD 
 INITIAL HNEW IS AN EXACT SOLUTION.

 NO OUTPUT CONTROL FOR STRESS PERIOD   25   TIME STEP 2181

 -------------------------------------------------------------------------------
                             SWR1 OUTPUT PRINT TIMES
                        STRESS PERIOD   25   TIME STEP  2181
 --------------- --------------- --------------- --------------- ---------------
     0.34812E+06                                                                
 -------------------------------------------------------------------------------
 
 SOLVING FOR HEAD 
 INITIAL HNEW IS AN EXACT SOLUTION.

 NO OUTPUT CONTROL FOR STRESS PERIOD   25   TIME STEP 2182

 -------------------------------------------------------------------------------
                             SWR1 OUTPUT PRINT TIMES
                        STRESS PERIOD   25   TIME STEP  2182
 --------------- --------------- --------------- --------------- ---------------
     0.34824E+06                                                                
 -------------------------------------------------------------------------------
 
 SOLVING FOR HEAD 
 INITIAL HNEW IS AN EXACT SOLUTION.

 NO OUTPUT CONTROL FOR STRESS PERIOD   25   TIME STEP 2183

 -------------------------------------------------------------------------------
                             SWR1 OUTPUT PRINT TIMES
                        STRESS PERIOD   25   TIME STEP  2183
 --------------- --------------- --------------- --------------- ---------------
     0.34836E+06                                                                
 -------------------------------------------------------------------------------
 
 SOLVING FOR HEAD 
 INITIAL HNEW IS AN EXACT SOLUTION.

 NO OUTPUT CONTROL FOR STRESS PERIOD   25   TIME STEP 2184

 -------------------------------------------------------------------------------
                             SWR1 OUTPUT PRINT TIMES
                        STRESS PERIOD   25   TIME STEP  2184
 --------------- --------------- --------------- --------------- ---------------
     0.34848E+06                                                                
 -------------------------------------------------------------------------------
 
 SOLVING FOR HEAD 
 INITIAL HNEW IS AN EXACT SOLUTION.

 NO OUTPUT CONTROL FOR STRESS PERIOD   25   TIME STEP 2185

 -------------------------------------------------------------------------------
                             SWR1 OUTPUT PRINT TIMES
                        STRESS PERIOD   25   TIME STEP  2185
 --------------- --------------- --------------- --------------- ---------------
     0.34860E+06                                                                
 -------------------------------------------------------------------------------
 
 SOLVING FOR HEAD 
 INITIAL HNEW IS AN EXACT SOLUTION.

 NO OUTPUT CONTROL FOR STRESS PERIOD   25   TIME STEP 2186

 -------------------------------------------------------------------------------
                             SWR1 OUTPUT PRINT TIMES
                        STRESS PERIOD   25   TIME STEP  2186
 --------------- --------------- --------------- --------------- ---------------
     0.34872E+06                                                                
 -------------------------------------------------------------------------------
 
 SOLVING FOR HEAD 
 INITIAL HNEW IS AN EXACT SOLUTION.

 NO OUTPUT CONTROL FOR STRESS PERIOD   25   TIME STEP 2187

 -------------------------------------------------------------------------------
                             SWR1 OUTPUT PRINT TIMES
                        STRESS PERIOD   25   TIME STEP  2187
 --------------- --------------- --------------- --------------- ---------------
     0.34884E+06                                                                
 -------------------------------------------------------------------------------
 
 SOLVING FOR HEAD 
 INITIAL HNEW IS AN EXACT SOLUTION.

 NO OUTPUT CONTROL FOR STRESS PERIOD   25   TIME STEP 2188

 -------------------------------------------------------------------------------
                             SWR1 OUTPUT PRINT TIMES
                        STRESS PERIOD   25   TIME STEP  2188
 --------------- --------------- --------------- --------------- ---------------
     0.34896E+06                                                                
 -------------------------------------------------------------------------------
 
 SOLVING FOR HEAD 
 INITIAL HNEW IS AN EXACT SOLUTION.

 NO OUTPUT CONTROL FOR STRESS PERIOD   25   TIME STEP 2189

 -------------------------------------------------------------------------------
                             SWR1 OUTPUT PRINT TIMES
                        STRESS PERIOD   25   TIME STEP  2189
 --------------- --------------- --------------- --------------- ---------------
     0.34908E+06                                                                
 -------------------------------------------------------------------------------
 
 SOLVING FOR HEAD 
 INITIAL HNEW IS AN EXACT SOLUTION.

 NO OUTPUT CONTROL FOR STRESS PERIOD   25   TIME STEP 2190

 -------------------------------------------------------------------------------
                             SWR1 OUTPUT PRINT TIMES
                        STRESS PERIOD   25   TIME STEP  2190
 --------------- --------------- --------------- --------------- ---------------
     0.34920E+06                                                                
 -------------------------------------------------------------------------------
 
 SOLVING FOR HEAD 
 INITIAL HNEW IS AN EXACT SOLUTION.

 NO OUTPUT CONTROL FOR STRESS PERIOD   25   TIME STEP 2191

 -------------------------------------------------------------------------------
                             SWR1 OUTPUT PRINT TIMES
                        STRESS PERIOD   25   TIME STEP  2191
 --------------- --------------- --------------- --------------- ---------------
     0.34932E+06                                                                
 -------------------------------------------------------------------------------
 
 SOLVING FOR HEAD 
 INITIAL HNEW IS AN EXACT SOLUTION.

 NO OUTPUT CONTROL FOR STRESS PERIOD   25   TIME STEP 2192

 -------------------------------------------------------------------------------
                             SWR1 OUTPUT PRINT TIMES
                        STRESS PERIOD   25   TIME STEP  2192
 --------------- --------------- --------------- --------------- ---------------
     0.34944E+06                                                                
 -------------------------------------------------------------------------------
 
 SOLVING FOR HEAD 
 INITIAL HNEW IS AN EXACT SOLUTION.

 NO OUTPUT CONTROL FOR STRESS PERIOD   25   TIME STEP 2193

 -------------------------------------------------------------------------------
                             SWR1 OUTPUT PRINT TIMES
                        STRESS PERIOD   25   TIME STEP  2193
 --------------- --------------- --------------- --------------- ---------------
     0.34956E+06                                                                
 -------------------------------------------------------------------------------
 
 SOLVING FOR HEAD 
 INITIAL HNEW IS AN EXACT SOLUTION.

 NO OUTPUT CONTROL FOR STRESS PERIOD   25   TIME STEP 2194

 -------------------------------------------------------------------------------
                             SWR1 OUTPUT PRINT TIMES
                        STRESS PERIOD   25   TIME STEP  2194
 --------------- --------------- --------------- --------------- ---------------
     0.34968E+06                                                                
 -------------------------------------------------------------------------------
 
 SOLVING FOR HEAD 
 INITIAL HNEW IS AN EXACT SOLUTION.

 NO OUTPUT CONTROL FOR STRESS PERIOD   25   TIME STEP 2195

 -------------------------------------------------------------------------------
                             SWR1 OUTPUT PRINT TIMES
                        STRESS PERIOD   25   TIME STEP  2195
 --------------- --------------- --------------- --------------- ---------------
     0.34980E+06                                                                
 -------------------------------------------------------------------------------
 
 SOLVING FOR HEAD 
 INITIAL HNEW IS AN EXACT SOLUTION.

 NO OUTPUT CONTROL FOR STRESS PERIOD   25   TIME STEP 2196

 -------------------------------------------------------------------------------
                             SWR1 OUTPUT PRINT TIMES
                        STRESS PERIOD   25   TIME STEP  2196
 --------------- --------------- --------------- --------------- ---------------
     0.34992E+06                                                                
 -------------------------------------------------------------------------------
 
 SOLVING FOR HEAD 
 INITIAL HNEW IS AN EXACT SOLUTION.

 NO OUTPUT CONTROL FOR STRESS PERIOD   25   TIME STEP 2197

 -------------------------------------------------------------------------------
                             SWR1 OUTPUT PRINT TIMES
                        STRESS PERIOD   25   TIME STEP  2197
 --------------- --------------- --------------- --------------- ---------------
     0.35004E+06                                                                
 -------------------------------------------------------------------------------
 
 SOLVING FOR HEAD 
 INITIAL HNEW IS AN EXACT SOLUTION.

 NO OUTPUT CONTROL FOR STRESS PERIOD   25   TIME STEP 2198

 -------------------------------------------------------------------------------
                             SWR1 OUTPUT PRINT TIMES
                        STRESS PERIOD   25   TIME STEP  2198
 --------------- --------------- --------------- --------------- ---------------
     0.35016E+06                                                                
 -------------------------------------------------------------------------------
 
 SOLVING FOR HEAD 
 INITIAL HNEW IS AN EXACT SOLUTION.

 NO OUTPUT CONTROL FOR STRESS PERIOD   25   TIME STEP 2199

 -------------------------------------------------------------------------------
                             SWR1 OUTPUT PRINT TIMES
                        STRESS PERIOD   25   TIME STEP  2199
 --------------- --------------- --------------- --------------- ---------------
     0.35028E+06                                                                
 -------------------------------------------------------------------------------
 
 SOLVING FOR HEAD 
 INITIAL HNEW IS AN EXACT SOLUTION.

 NO OUTPUT CONTROL FOR STRESS PERIOD   25   TIME STEP 2200

 -------------------------------------------------------------------------------
                             SWR1 OUTPUT PRINT TIMES
                        STRESS PERIOD   25   TIME STEP  2200
 --------------- --------------- --------------- --------------- ---------------
     0.35040E+06                                                                
 -------------------------------------------------------------------------------
 
 SOLVING FOR HEAD 
 INITIAL HNEW IS AN EXACT SOLUTION.

 NO OUTPUT CONTROL FOR STRESS PERIOD   25   TIME STEP 2201

 -------------------------------------------------------------------------------
                             SWR1 OUTPUT PRINT TIMES
                        STRESS PERIOD   25   TIME STEP  2201
 --------------- --------------- --------------- --------------- ---------------
     0.35052E+06                                                                
 -------------------------------------------------------------------------------
 
 SOLVING FOR HEAD 
 INITIAL HNEW IS AN EXACT SOLUTION.

 NO OUTPUT CONTROL FOR STRESS PERIOD   25   TIME STEP 2202

 -------------------------------------------------------------------------------
                             SWR1 OUTPUT PRINT TIMES
                        STRESS PERIOD   25   TIME STEP  2202
 --------------- --------------- --------------- --------------- ---------------
     0.35064E+06                                                                
 -------------------------------------------------------------------------------
 
 SOLVING FOR HEAD 
 INITIAL HNEW IS AN EXACT SOLUTION.

 NO OUTPUT CONTROL FOR STRESS PERIOD   25   TIME STEP 2203

 -------------------------------------------------------------------------------
                             SWR1 OUTPUT PRINT TIMES
                        STRESS PERIOD   25   TIME STEP  2203
 --------------- --------------- --------------- --------------- ---------------
     0.35076E+06                                                                
 -------------------------------------------------------------------------------
 
 SOLVING FOR HEAD 
 INITIAL HNEW IS AN EXACT SOLUTION.

 NO OUTPUT CONTROL FOR STRESS PERIOD   25   TIME STEP 2204

 -------------------------------------------------------------------------------
                             SWR1 OUTPUT PRINT TIMES
                        STRESS PERIOD   25   TIME STEP  2204
 --------------- --------------- --------------- --------------- ---------------
     0.35088E+06                                                                
 -------------------------------------------------------------------------------
 
 SOLVING FOR HEAD 
 INITIAL HNEW IS AN EXACT SOLUTION.

 NO OUTPUT CONTROL FOR STRESS PERIOD   25   TIME STEP 2205

 -------------------------------------------------------------------------------
                             SWR1 OUTPUT PRINT TIMES
                        STRESS PERIOD   25   TIME STEP  2205
 --------------- --------------- --------------- --------------- ---------------
     0.35100E+06                                                                
 -------------------------------------------------------------------------------
 
 SOLVING FOR HEAD 
 INITIAL HNEW IS AN EXACT SOLUTION.

 NO OUTPUT CONTROL FOR STRESS PERIOD   25   TIME STEP 2206

 -------------------------------------------------------------------------------
                             SWR1 OUTPUT PRINT TIMES
                        STRESS PERIOD   25   TIME STEP  2206
 --------------- --------------- --------------- --------------- ---------------
     0.35112E+06                                                                
 -------------------------------------------------------------------------------
 
 SOLVING FOR HEAD 
 INITIAL HNEW IS AN EXACT SOLUTION.

 NO OUTPUT CONTROL FOR STRESS PERIOD   25   TIME STEP 2207

 -------------------------------------------------------------------------------
                             SWR1 OUTPUT PRINT TIMES
                        STRESS PERIOD   25   TIME STEP  2207
 --------------- --------------- --------------- --------------- ---------------
     0.35124E+06                                                                
 -------------------------------------------------------------------------------
 
 SOLVING FOR HEAD 
 INITIAL HNEW IS AN EXACT SOLUTION.

 NO OUTPUT CONTROL FOR STRESS PERIOD   25   TIME STEP 2208

 -------------------------------------------------------------------------------
                             SWR1 OUTPUT PRINT TIMES
                        STRESS PERIOD   25   TIME STEP  2208
 --------------- --------------- --------------- --------------- ---------------
     0.35136E+06                                                                
 -------------------------------------------------------------------------------
 
 SOLVING FOR HEAD 
 INITIAL HNEW IS AN EXACT SOLUTION.

 NO OUTPUT CONTROL FOR STRESS PERIOD   25   TIME STEP 2209

 -------------------------------------------------------------------------------
                             SWR1 OUTPUT PRINT TIMES
                        STRESS PERIOD   25   TIME STEP  2209
 --------------- --------------- --------------- --------------- ---------------
     0.35148E+06                                                                
 -------------------------------------------------------------------------------
 
 SOLVING FOR HEAD 
 INITIAL HNEW IS AN EXACT SOLUTION.

 NO OUTPUT CONTROL FOR STRESS PERIOD   25   TIME STEP 2210

 -------------------------------------------------------------------------------
                             SWR1 OUTPUT PRINT TIMES
                        STRESS PERIOD   25   TIME STEP  2210
 --------------- --------------- --------------- --------------- ---------------
     0.35160E+06                                                                
 -------------------------------------------------------------------------------
 
 SOLVING FOR HEAD 
 INITIAL HNEW IS AN EXACT SOLUTION.

 NO OUTPUT CONTROL FOR STRESS PERIOD   25   TIME STEP 2211

 -------------------------------------------------------------------------------
                             SWR1 OUTPUT PRINT TIMES
                        STRESS PERIOD   25   TIME STEP  2211
 --------------- --------------- --------------- --------------- ---------------
     0.35172E+06                                                                
 -------------------------------------------------------------------------------
 
 SOLVING FOR HEAD 
 INITIAL HNEW IS AN EXACT SOLUTION.

 NO OUTPUT CONTROL FOR STRESS PERIOD   25   TIME STEP 2212

 -------------------------------------------------------------------------------
                             SWR1 OUTPUT PRINT TIMES
                        STRESS PERIOD   25   TIME STEP  2212
 --------------- --------------- --------------- --------------- ---------------
     0.35184E+06                                                                
 -------------------------------------------------------------------------------
 
 SOLVING FOR HEAD 
 INITIAL HNEW IS AN EXACT SOLUTION.

 NO OUTPUT CONTROL FOR STRESS PERIOD   25   TIME STEP 2213

 -------------------------------------------------------------------------------
                             SWR1 OUTPUT PRINT TIMES
                        STRESS PERIOD   25   TIME STEP  2213
 --------------- --------------- --------------- --------------- ---------------
     0.35196E+06                                                                
 -------------------------------------------------------------------------------
 
 SOLVING FOR HEAD 
 INITIAL HNEW IS AN EXACT SOLUTION.

 NO OUTPUT CONTROL FOR STRESS PERIOD   25   TIME STEP 2214

 -------------------------------------------------------------------------------
                             SWR1 OUTPUT PRINT TIMES
                        STRESS PERIOD   25   TIME STEP  2214
 --------------- --------------- --------------- --------------- ---------------
     0.35208E+06                                                                
 -------------------------------------------------------------------------------
 
 SOLVING FOR HEAD 
 INITIAL HNEW IS AN EXACT SOLUTION.

 NO OUTPUT CONTROL FOR STRESS PERIOD   25   TIME STEP 2215

 -------------------------------------------------------------------------------
                             SWR1 OUTPUT PRINT TIMES
                        STRESS PERIOD   25   TIME STEP  2215
 --------------- --------------- --------------- --------------- ---------------
     0.35220E+06                                                                
 -------------------------------------------------------------------------------
 
 SOLVING FOR HEAD 
 INITIAL HNEW IS AN EXACT SOLUTION.

 NO OUTPUT CONTROL FOR STRESS PERIOD   25   TIME STEP 2216

 -------------------------------------------------------------------------------
                             SWR1 OUTPUT PRINT TIMES
                        STRESS PERIOD   25   TIME STEP  2216
 --------------- --------------- --------------- --------------- ---------------
     0.35232E+06                                                                
 -------------------------------------------------------------------------------
 
 SOLVING FOR HEAD 
 INITIAL HNEW IS AN EXACT SOLUTION.

 NO OUTPUT CONTROL FOR STRESS PERIOD   25   TIME STEP 2217

 -------------------------------------------------------------------------------
                             SWR1 OUTPUT PRINT TIMES
                        STRESS PERIOD   25   TIME STEP  2217
 --------------- --------------- --------------- --------------- ---------------
     0.35244E+06                                                                
 -------------------------------------------------------------------------------
 
 SOLVING FOR HEAD 
 INITIAL HNEW IS AN EXACT SOLUTION.

 NO OUTPUT CONTROL FOR STRESS PERIOD   25   TIME STEP 2218

 -------------------------------------------------------------------------------
                             SWR1 OUTPUT PRINT TIMES
                        STRESS PERIOD   25   TIME STEP  2218
 --------------- --------------- --------------- --------------- ---------------
     0.35256E+06                                                                
 -------------------------------------------------------------------------------
 
 SOLVING FOR HEAD 
 INITIAL HNEW IS AN EXACT SOLUTION.

 NO OUTPUT CONTROL FOR STRESS PERIOD   25   TIME STEP 2219

 -------------------------------------------------------------------------------
                             SWR1 OUTPUT PRINT TIMES
                        STRESS PERIOD   25   TIME STEP  2219
 --------------- --------------- --------------- --------------- ---------------
     0.35268E+06                                                                
 -------------------------------------------------------------------------------
 
 SOLVING FOR HEAD 
 INITIAL HNEW IS AN EXACT SOLUTION.

 NO OUTPUT CONTROL FOR STRESS PERIOD   25   TIME STEP 2220

 -------------------------------------------------------------------------------
                             SWR1 OUTPUT PRINT TIMES
                        STRESS PERIOD   25   TIME STEP  2220
 --------------- --------------- --------------- --------------- ---------------
     0.35280E+06                                                                
 -------------------------------------------------------------------------------
 
 SOLVING FOR HEAD 
 INITIAL HNEW IS AN EXACT SOLUTION.

 NO OUTPUT CONTROL FOR STRESS PERIOD   25   TIME STEP 2221

 -------------------------------------------------------------------------------
                             SWR1 OUTPUT PRINT TIMES
                        STRESS PERIOD   25   TIME STEP  2221
 --------------- --------------- --------------- --------------- ---------------
     0.35292E+06                                                                
 -------------------------------------------------------------------------------
 
 SOLVING FOR HEAD 
 INITIAL HNEW IS AN EXACT SOLUTION.

 NO OUTPUT CONTROL FOR STRESS PERIOD   25   TIME STEP 2222

 -------------------------------------------------------------------------------
                             SWR1 OUTPUT PRINT TIMES
                        STRESS PERIOD   25   TIME STEP  2222
 --------------- --------------- --------------- --------------- ---------------
     0.35304E+06                                                                
 -------------------------------------------------------------------------------
 
 SOLVING FOR HEAD 
 INITIAL HNEW IS AN EXACT SOLUTION.

 NO OUTPUT CONTROL FOR STRESS PERIOD   25   TIME STEP 2223

 -------------------------------------------------------------------------------
                             SWR1 OUTPUT PRINT TIMES
                        STRESS PERIOD   25   TIME STEP  2223
 --------------- --------------- --------------- --------------- ---------------
     0.35316E+06                                                                
 -------------------------------------------------------------------------------
 
 SOLVING FOR HEAD 
 INITIAL HNEW IS AN EXACT SOLUTION.

 NO OUTPUT CONTROL FOR STRESS PERIOD   25   TIME STEP 2224

 -------------------------------------------------------------------------------
                             SWR1 OUTPUT PRINT TIMES
                        STRESS PERIOD   25   TIME STEP  2224
 --------------- --------------- --------------- --------------- ---------------
     0.35328E+06                                                                
 -------------------------------------------------------------------------------
 
 SOLVING FOR HEAD 
 INITIAL HNEW IS AN EXACT SOLUTION.

 NO OUTPUT CONTROL FOR STRESS PERIOD   25   TIME STEP 2225

 -------------------------------------------------------------------------------
                             SWR1 OUTPUT PRINT TIMES
                        STRESS PERIOD   25   TIME STEP  2225
 --------------- --------------- --------------- --------------- ---------------
     0.35340E+06                                                                
 -------------------------------------------------------------------------------
 
 SOLVING FOR HEAD 
 INITIAL HNEW IS AN EXACT SOLUTION.

 NO OUTPUT CONTROL FOR STRESS PERIOD   25   TIME STEP 2226

 -------------------------------------------------------------------------------
                             SWR1 OUTPUT PRINT TIMES
                        STRESS PERIOD   25   TIME STEP  2226
 --------------- --------------- --------------- --------------- ---------------
     0.35352E+06                                                                
 -------------------------------------------------------------------------------
 
 SOLVING FOR HEAD 
 INITIAL HNEW IS AN EXACT SOLUTION.

 NO OUTPUT CONTROL FOR STRESS PERIOD   25   TIME STEP 2227

 -------------------------------------------------------------------------------
                             SWR1 OUTPUT PRINT TIMES
                        STRESS PERIOD   25   TIME STEP  2227
 --------------- --------------- --------------- --------------- ---------------
     0.35364E+06                                                                
 -------------------------------------------------------------------------------
 
 SOLVING FOR HEAD 
 INITIAL HNEW IS AN EXACT SOLUTION.

 NO OUTPUT CONTROL FOR STRESS PERIOD   25   TIME STEP 2228

 -------------------------------------------------------------------------------
                             SWR1 OUTPUT PRINT TIMES
                        STRESS PERIOD   25   TIME STEP  2228
 --------------- --------------- --------------- --------------- ---------------
     0.35376E+06                                                                
 -------------------------------------------------------------------------------
 
 SOLVING FOR HEAD 
 INITIAL HNEW IS AN EXACT SOLUTION.

 NO OUTPUT CONTROL FOR STRESS PERIOD   25   TIME STEP 2229

 -------------------------------------------------------------------------------
                             SWR1 OUTPUT PRINT TIMES
                        STRESS PERIOD   25   TIME STEP  2229
 --------------- --------------- --------------- --------------- ---------------
     0.35388E+06                                                                
 -------------------------------------------------------------------------------
 
 SOLVING FOR HEAD 
 INITIAL HNEW IS AN EXACT SOLUTION.

 NO OUTPUT CONTROL FOR STRESS PERIOD   25   TIME STEP 2230

 -------------------------------------------------------------------------------
                             SWR1 OUTPUT PRINT TIMES
                        STRESS PERIOD   25   TIME STEP  2230
 --------------- --------------- --------------- --------------- ---------------
     0.35400E+06                                                                
 -------------------------------------------------------------------------------
 
 SOLVING FOR HEAD 
 INITIAL HNEW IS AN EXACT SOLUTION.

 NO OUTPUT CONTROL FOR STRESS PERIOD   25   TIME STEP 2231

 -------------------------------------------------------------------------------
                             SWR1 OUTPUT PRINT TIMES
                        STRESS PERIOD   25   TIME STEP  2231
 --------------- --------------- --------------- --------------- ---------------
     0.35412E+06                                                                
 -------------------------------------------------------------------------------
 
 SOLVING FOR HEAD 
 INITIAL HNEW IS AN EXACT SOLUTION.

 NO OUTPUT CONTROL FOR STRESS PERIOD   25   TIME STEP 2232

 -------------------------------------------------------------------------------
                             SWR1 OUTPUT PRINT TIMES
                        STRESS PERIOD   25   TIME STEP  2232
 --------------- --------------- --------------- --------------- ---------------
     0.35424E+06                                                                
 -------------------------------------------------------------------------------
 
 SOLVING FOR HEAD 
 INITIAL HNEW IS AN EXACT SOLUTION.

 NO OUTPUT CONTROL FOR STRESS PERIOD   25   TIME STEP 2233

 -------------------------------------------------------------------------------
                             SWR1 OUTPUT PRINT TIMES
                        STRESS PERIOD   25   TIME STEP  2233
 --------------- --------------- --------------- --------------- ---------------
     0.35436E+06                                                                
 -------------------------------------------------------------------------------
 
 SOLVING FOR HEAD 
 INITIAL HNEW IS AN EXACT SOLUTION.

 NO OUTPUT CONTROL FOR STRESS PERIOD   25   TIME STEP 2234

 -------------------------------------------------------------------------------
                             SWR1 OUTPUT PRINT TIMES
                        STRESS PERIOD   25   TIME STEP  2234
 --------------- --------------- --------------- --------------- ---------------
     0.35448E+06                                                                
 -------------------------------------------------------------------------------
 
 SOLVING FOR HEAD 
 INITIAL HNEW IS AN EXACT SOLUTION.

 NO OUTPUT CONTROL FOR STRESS PERIOD   25   TIME STEP 2235

 -------------------------------------------------------------------------------
                             SWR1 OUTPUT PRINT TIMES
                        STRESS PERIOD   25   TIME STEP  2235
 --------------- --------------- --------------- --------------- ---------------
     0.35460E+06                                                                
 -------------------------------------------------------------------------------
 
 SOLVING FOR HEAD 
 INITIAL HNEW IS AN EXACT SOLUTION.

 NO OUTPUT CONTROL FOR STRESS PERIOD   25   TIME STEP 2236

 -------------------------------------------------------------------------------
                             SWR1 OUTPUT PRINT TIMES
                        STRESS PERIOD   25   TIME STEP  2236
 --------------- --------------- --------------- --------------- ---------------
     0.35472E+06                                                                
 -------------------------------------------------------------------------------
 
 SOLVING FOR HEAD 
 INITIAL HNEW IS AN EXACT SOLUTION.

 NO OUTPUT CONTROL FOR STRESS PERIOD   25   TIME STEP 2237

 -------------------------------------------------------------------------------
                             SWR1 OUTPUT PRINT TIMES
                        STRESS PERIOD   25   TIME STEP  2237
 --------------- --------------- --------------- --------------- ---------------
     0.35484E+06                                                                
 -------------------------------------------------------------------------------
 
 SOLVING FOR HEAD 
 INITIAL HNEW IS AN EXACT SOLUTION.

 NO OUTPUT CONTROL FOR STRESS PERIOD   25   TIME STEP 2238

 -------------------------------------------------------------------------------
                             SWR1 OUTPUT PRINT TIMES
                        STRESS PERIOD   25   TIME STEP  2238
 --------------- --------------- --------------- --------------- ---------------
     0.35496E+06                                                                
 -------------------------------------------------------------------------------
 
 SOLVING FOR HEAD 
 INITIAL HNEW IS AN EXACT SOLUTION.

 NO OUTPUT CONTROL FOR STRESS PERIOD   25   TIME STEP 2239

 -------------------------------------------------------------------------------
                             SWR1 OUTPUT PRINT TIMES
                        STRESS PERIOD   25   TIME STEP  2239
 --------------- --------------- --------------- --------------- ---------------
     0.35508E+06                                                                
 -------------------------------------------------------------------------------
 
 SOLVING FOR HEAD 
 INITIAL HNEW IS AN EXACT SOLUTION.

 NO OUTPUT CONTROL FOR STRESS PERIOD   25   TIME STEP 2240

 -------------------------------------------------------------------------------
                             SWR1 OUTPUT PRINT TIMES
                        STRESS PERIOD   25   TIME STEP  2240
 --------------- --------------- --------------- --------------- ---------------
     0.35520E+06                                                                
 -------------------------------------------------------------------------------
 
 SOLVING FOR HEAD 
 INITIAL HNEW IS AN EXACT SOLUTION.

 NO OUTPUT CONTROL FOR STRESS PERIOD   25   TIME STEP 2241

 -------------------------------------------------------------------------------
                             SWR1 OUTPUT PRINT TIMES
                        STRESS PERIOD   25   TIME STEP  2241
 --------------- --------------- --------------- --------------- ---------------
     0.35532E+06                                                                
 -------------------------------------------------------------------------------
 
 SOLVING FOR HEAD 
 INITIAL HNEW IS AN EXACT SOLUTION.

 NO OUTPUT CONTROL FOR STRESS PERIOD   25   TIME STEP 2242

 -------------------------------------------------------------------------------
                             SWR1 OUTPUT PRINT TIMES
                        STRESS PERIOD   25   TIME STEP  2242
 --------------- --------------- --------------- --------------- ---------------
     0.35544E+06                                                                
 -------------------------------------------------------------------------------
 
 SOLVING FOR HEAD 
 INITIAL HNEW IS AN EXACT SOLUTION.

 NO OUTPUT CONTROL FOR STRESS PERIOD   25   TIME STEP 2243

 -------------------------------------------------------------------------------
                             SWR1 OUTPUT PRINT TIMES
                        STRESS PERIOD   25   TIME STEP  2243
 --------------- --------------- --------------- --------------- ---------------
     0.35556E+06                                                                
 -------------------------------------------------------------------------------
 
 SOLVING FOR HEAD 
 INITIAL HNEW IS AN EXACT SOLUTION.

 NO OUTPUT CONTROL FOR STRESS PERIOD   25   TIME STEP 2244

 -------------------------------------------------------------------------------
                             SWR1 OUTPUT PRINT TIMES
                        STRESS PERIOD   25   TIME STEP  2244
 --------------- --------------- --------------- --------------- ---------------
     0.35568E+06                                                                
 -------------------------------------------------------------------------------
 
 SOLVING FOR HEAD 
 INITIAL HNEW IS AN EXACT SOLUTION.

 NO OUTPUT CONTROL FOR STRESS PERIOD   25   TIME STEP 2245

 -------------------------------------------------------------------------------
                             SWR1 OUTPUT PRINT TIMES
                        STRESS PERIOD   25   TIME STEP  2245
 --------------- --------------- --------------- --------------- ---------------
     0.35580E+06                                                                
 -------------------------------------------------------------------------------
 
 SOLVING FOR HEAD 
 INITIAL HNEW IS AN EXACT SOLUTION.

 NO OUTPUT CONTROL FOR STRESS PERIOD   25   TIME STEP 2246

 -------------------------------------------------------------------------------
                             SWR1 OUTPUT PRINT TIMES
                        STRESS PERIOD   25   TIME STEP  2246
 --------------- --------------- --------------- --------------- ---------------
     0.35592E+06                                                                
 -------------------------------------------------------------------------------
 
 SOLVING FOR HEAD 
 INITIAL HNEW IS AN EXACT SOLUTION.

 NO OUTPUT CONTROL FOR STRESS PERIOD   25   TIME STEP 2247

 -------------------------------------------------------------------------------
                             SWR1 OUTPUT PRINT TIMES
                        STRESS PERIOD   25   TIME STEP  2247
 --------------- --------------- --------------- --------------- ---------------
     0.35604E+06                                                                
 -------------------------------------------------------------------------------
 
 SOLVING FOR HEAD 
 INITIAL HNEW IS AN EXACT SOLUTION.

 NO OUTPUT CONTROL FOR STRESS PERIOD   25   TIME STEP 2248

 -------------------------------------------------------------------------------
                             SWR1 OUTPUT PRINT TIMES
                        STRESS PERIOD   25   TIME STEP  2248
 --------------- --------------- --------------- --------------- ---------------
     0.35616E+06                                                                
 -------------------------------------------------------------------------------
 
 SOLVING FOR HEAD 
 INITIAL HNEW IS AN EXACT SOLUTION.

 NO OUTPUT CONTROL FOR STRESS PERIOD   25   TIME STEP 2249

 -------------------------------------------------------------------------------
                             SWR1 OUTPUT PRINT TIMES
                        STRESS PERIOD   25   TIME STEP  2249
 --------------- --------------- --------------- --------------- ---------------
     0.35628E+06                                                                
 -------------------------------------------------------------------------------
 
 SOLVING FOR HEAD 
 INITIAL HNEW IS AN EXACT SOLUTION.

 NO OUTPUT CONTROL FOR STRESS PERIOD   25   TIME STEP 2250

 -------------------------------------------------------------------------------
                             SWR1 OUTPUT PRINT TIMES
                        STRESS PERIOD   25   TIME STEP  2250
 --------------- --------------- --------------- --------------- ---------------
     0.35640E+06                                                                
 -------------------------------------------------------------------------------
 
 SOLVING FOR HEAD 
 INITIAL HNEW IS AN EXACT SOLUTION.

 NO OUTPUT CONTROL FOR STRESS PERIOD   25   TIME STEP 2251

 -------------------------------------------------------------------------------
                             SWR1 OUTPUT PRINT TIMES
                        STRESS PERIOD   25   TIME STEP  2251
 --------------- --------------- --------------- --------------- ---------------
     0.35652E+06                                                                
 -------------------------------------------------------------------------------
 
 SOLVING FOR HEAD 
 INITIAL HNEW IS AN EXACT SOLUTION.

 NO OUTPUT CONTROL FOR STRESS PERIOD   25   TIME STEP 2252

 -------------------------------------------------------------------------------
                             SWR1 OUTPUT PRINT TIMES
                        STRESS PERIOD   25   TIME STEP  2252
 --------------- --------------- --------------- --------------- ---------------
     0.35664E+06                                                                
 -------------------------------------------------------------------------------
 
 SOLVING FOR HEAD 
 INITIAL HNEW IS AN EXACT SOLUTION.

 NO OUTPUT CONTROL FOR STRESS PERIOD   25   TIME STEP 2253

 -------------------------------------------------------------------------------
                             SWR1 OUTPUT PRINT TIMES
                        STRESS PERIOD   25   TIME STEP  2253
 --------------- --------------- --------------- --------------- ---------------
     0.35676E+06                                                                
 -------------------------------------------------------------------------------
 
 SOLVING FOR HEAD 
 INITIAL HNEW IS AN EXACT SOLUTION.

 NO OUTPUT CONTROL FOR STRESS PERIOD   25   TIME STEP 2254

 -------------------------------------------------------------------------------
                             SWR1 OUTPUT PRINT TIMES
                        STRESS PERIOD   25   TIME STEP  2254
 --------------- --------------- --------------- --------------- ---------------
     0.35688E+06                                                                
 -------------------------------------------------------------------------------
 
 SOLVING FOR HEAD 
 INITIAL HNEW IS AN EXACT SOLUTION.

 NO OUTPUT CONTROL FOR STRESS PERIOD   25   TIME STEP 2255

 -------------------------------------------------------------------------------
                             SWR1 OUTPUT PRINT TIMES
                        STRESS PERIOD   25   TIME STEP  2255
 --------------- --------------- --------------- --------------- ---------------
     0.35700E+06                                                                
 -------------------------------------------------------------------------------
 
 SOLVING FOR HEAD 
 INITIAL HNEW IS AN EXACT SOLUTION.

 NO OUTPUT CONTROL FOR STRESS PERIOD   25   TIME STEP 2256

 -------------------------------------------------------------------------------
                             SWR1 OUTPUT PRINT TIMES
                        STRESS PERIOD   25   TIME STEP  2256
 --------------- --------------- --------------- --------------- ---------------
     0.35712E+06                                                                
 -------------------------------------------------------------------------------
 
 SOLVING FOR HEAD 
 INITIAL HNEW IS AN EXACT SOLUTION.

 NO OUTPUT CONTROL FOR STRESS PERIOD   25   TIME STEP 2257

 -------------------------------------------------------------------------------
                             SWR1 OUTPUT PRINT TIMES
                        STRESS PERIOD   25   TIME STEP  2257
 --------------- --------------- --------------- --------------- ---------------
     0.35724E+06                                                                
 -------------------------------------------------------------------------------
 
 SOLVING FOR HEAD 
 INITIAL HNEW IS AN EXACT SOLUTION.

 NO OUTPUT CONTROL FOR STRESS PERIOD   25   TIME STEP 2258

 -------------------------------------------------------------------------------
                             SWR1 OUTPUT PRINT TIMES
                        STRESS PERIOD   25   TIME STEP  2258
 --------------- --------------- --------------- --------------- ---------------
     0.35736E+06                                                                
 -------------------------------------------------------------------------------
 
 SOLVING FOR HEAD 
 INITIAL HNEW IS AN EXACT SOLUTION.

 NO OUTPUT CONTROL FOR STRESS PERIOD   25   TIME STEP 2259

 -------------------------------------------------------------------------------
                             SWR1 OUTPUT PRINT TIMES
                        STRESS PERIOD   25   TIME STEP  2259
 --------------- --------------- --------------- --------------- ---------------
     0.35748E+06                                                                
 -------------------------------------------------------------------------------
 
 SOLVING FOR HEAD 
 INITIAL HNEW IS AN EXACT SOLUTION.

 NO OUTPUT CONTROL FOR STRESS PERIOD   25   TIME STEP 2260

 -------------------------------------------------------------------------------
                             SWR1 OUTPUT PRINT TIMES
                        STRESS PERIOD   25   TIME STEP  2260
 --------------- --------------- --------------- --------------- ---------------
     0.35760E+06                                                                
 -------------------------------------------------------------------------------
 
 SOLVING FOR HEAD 
 INITIAL HNEW IS AN EXACT SOLUTION.

 NO OUTPUT CONTROL FOR STRESS PERIOD   25   TIME STEP 2261

 -------------------------------------------------------------------------------
                             SWR1 OUTPUT PRINT TIMES
                        STRESS PERIOD   25   TIME STEP  2261
 --------------- --------------- --------------- --------------- ---------------
     0.35772E+06                                                                
 -------------------------------------------------------------------------------
 
 SOLVING FOR HEAD 
 INITIAL HNEW IS AN EXACT SOLUTION.

 NO OUTPUT CONTROL FOR STRESS PERIOD   25   TIME STEP 2262

 -------------------------------------------------------------------------------
                             SWR1 OUTPUT PRINT TIMES
                        STRESS PERIOD   25   TIME STEP  2262
 --------------- --------------- --------------- --------------- ---------------
     0.35784E+06                                                                
 -------------------------------------------------------------------------------
 
 SOLVING FOR HEAD 
 INITIAL HNEW IS AN EXACT SOLUTION.

 NO OUTPUT CONTROL FOR STRESS PERIOD   25   TIME STEP 2263

 -------------------------------------------------------------------------------
                             SWR1 OUTPUT PRINT TIMES
                        STRESS PERIOD   25   TIME STEP  2263
 --------------- --------------- --------------- --------------- ---------------
     0.35796E+06                                                                
 -------------------------------------------------------------------------------
 
 SOLVING FOR HEAD 
 INITIAL HNEW IS AN EXACT SOLUTION.

 NO OUTPUT CONTROL FOR STRESS PERIOD   25   TIME STEP 2264

 -------------------------------------------------------------------------------
                             SWR1 OUTPUT PRINT TIMES
                        STRESS PERIOD   25   TIME STEP  2264
 --------------- --------------- --------------- --------------- ---------------
     0.35808E+06                                                                
 -------------------------------------------------------------------------------
 
 SOLVING FOR HEAD 
 INITIAL HNEW IS AN EXACT SOLUTION.

 NO OUTPUT CONTROL FOR STRESS PERIOD   25   TIME STEP 2265

 -------------------------------------------------------------------------------
                             SWR1 OUTPUT PRINT TIMES
                        STRESS PERIOD   25   TIME STEP  2265
 --------------- --------------- --------------- --------------- ---------------
     0.35820E+06                                                                
 -------------------------------------------------------------------------------
 
 SOLVING FOR HEAD 
 INITIAL HNEW IS AN EXACT SOLUTION.

 NO OUTPUT CONTROL FOR STRESS PERIOD   25   TIME STEP 2266

 -------------------------------------------------------------------------------
                             SWR1 OUTPUT PRINT TIMES
                        STRESS PERIOD   25   TIME STEP  2266
 --------------- --------------- --------------- --------------- ---------------
     0.35832E+06                                                                
 -------------------------------------------------------------------------------
 
 SOLVING FOR HEAD 
 INITIAL HNEW IS AN EXACT SOLUTION.

 NO OUTPUT CONTROL FOR STRESS PERIOD   25   TIME STEP 2267

 -------------------------------------------------------------------------------
                             SWR1 OUTPUT PRINT TIMES
                        STRESS PERIOD   25   TIME STEP  2267
 --------------- --------------- --------------- --------------- ---------------
     0.35844E+06                                                                
 -------------------------------------------------------------------------------
 
 SOLVING FOR HEAD 
 INITIAL HNEW IS AN EXACT SOLUTION.

 NO OUTPUT CONTROL FOR STRESS PERIOD   25   TIME STEP 2268

 -------------------------------------------------------------------------------
                             SWR1 OUTPUT PRINT TIMES
                        STRESS PERIOD   25   TIME STEP  2268
 --------------- --------------- --------------- --------------- ---------------
     0.35856E+06                                                                
 -------------------------------------------------------------------------------
 
 SOLVING FOR HEAD 
 INITIAL HNEW IS AN EXACT SOLUTION.

 NO OUTPUT CONTROL FOR STRESS PERIOD   25   TIME STEP 2269

 -------------------------------------------------------------------------------
                             SWR1 OUTPUT PRINT TIMES
                        STRESS PERIOD   25   TIME STEP  2269
 --------------- --------------- --------------- --------------- ---------------
     0.35868E+06                                                                
 -------------------------------------------------------------------------------
 
 SOLVING FOR HEAD 
 INITIAL HNEW IS AN EXACT SOLUTION.

 NO OUTPUT CONTROL FOR STRESS PERIOD   25   TIME STEP 2270

 -------------------------------------------------------------------------------
                             SWR1 OUTPUT PRINT TIMES
                        STRESS PERIOD   25   TIME STEP  2270
 --------------- --------------- --------------- --------------- ---------------
     0.35880E+06                                                                
 -------------------------------------------------------------------------------
 
 SOLVING FOR HEAD 
 INITIAL HNEW IS AN EXACT SOLUTION.

 NO OUTPUT CONTROL FOR STRESS PERIOD   25   TIME STEP 2271

 -------------------------------------------------------------------------------
                             SWR1 OUTPUT PRINT TIMES
                        STRESS PERIOD   25   TIME STEP  2271
 --------------- --------------- --------------- --------------- ---------------
     0.35892E+06                                                                
 -------------------------------------------------------------------------------
 
 SOLVING FOR HEAD 
 INITIAL HNEW IS AN EXACT SOLUTION.

 NO OUTPUT CONTROL FOR STRESS PERIOD   25   TIME STEP 2272

 -------------------------------------------------------------------------------
                             SWR1 OUTPUT PRINT TIMES
                        STRESS PERIOD   25   TIME STEP  2272
 --------------- --------------- --------------- --------------- ---------------
     0.35904E+06                                                                
 -------------------------------------------------------------------------------
 
 SOLVING FOR HEAD 
 INITIAL HNEW IS AN EXACT SOLUTION.

 NO OUTPUT CONTROL FOR STRESS PERIOD   25   TIME STEP 2273

 -------------------------------------------------------------------------------
                             SWR1 OUTPUT PRINT TIMES
                        STRESS PERIOD   25   TIME STEP  2273
 --------------- --------------- --------------- --------------- ---------------
     0.35916E+06                                                                
 -------------------------------------------------------------------------------
 
 SOLVING FOR HEAD 
 INITIAL HNEW IS AN EXACT SOLUTION.

 NO OUTPUT CONTROL FOR STRESS PERIOD   25   TIME STEP 2274

 -------------------------------------------------------------------------------
                             SWR1 OUTPUT PRINT TIMES
                        STRESS PERIOD   25   TIME STEP  2274
 --------------- --------------- --------------- --------------- ---------------
     0.35928E+06                                                                
 -------------------------------------------------------------------------------
 
 SOLVING FOR HEAD 
 INITIAL HNEW IS AN EXACT SOLUTION.

 NO OUTPUT CONTROL FOR STRESS PERIOD   25   TIME STEP 2275

 -------------------------------------------------------------------------------
                             SWR1 OUTPUT PRINT TIMES
                        STRESS PERIOD   25   TIME STEP  2275
 --------------- --------------- --------------- --------------- ---------------
     0.35940E+06                                                                
 -------------------------------------------------------------------------------
 
 SOLVING FOR HEAD 
 INITIAL HNEW IS AN EXACT SOLUTION.

 NO OUTPUT CONTROL FOR STRESS PERIOD   25   TIME STEP 2276

 -------------------------------------------------------------------------------
                             SWR1 OUTPUT PRINT TIMES
                        STRESS PERIOD   25   TIME STEP  2276
 --------------- --------------- --------------- --------------- ---------------
     0.35952E+06                                                                
 -------------------------------------------------------------------------------
 
 SOLVING FOR HEAD 
 INITIAL HNEW IS AN EXACT SOLUTION.

 NO OUTPUT CONTROL FOR STRESS PERIOD   25   TIME STEP 2277

 -------------------------------------------------------------------------------
                             SWR1 OUTPUT PRINT TIMES
                        STRESS PERIOD   25   TIME STEP  2277
 --------------- --------------- --------------- --------------- ---------------
     0.35964E+06                                                                
 -------------------------------------------------------------------------------
 
 SOLVING FOR HEAD 
 INITIAL HNEW IS AN EXACT SOLUTION.

 NO OUTPUT CONTROL FOR STRESS PERIOD   25   TIME STEP 2278

 -------------------------------------------------------------------------------
                             SWR1 OUTPUT PRINT TIMES
                        STRESS PERIOD   25   TIME STEP  2278
 --------------- --------------- --------------- --------------- ---------------
     0.35976E+06                                                                
 -------------------------------------------------------------------------------
 
 SOLVING FOR HEAD 
 INITIAL HNEW IS AN EXACT SOLUTION.

 NO OUTPUT CONTROL FOR STRESS PERIOD   25   TIME STEP 2279

 -------------------------------------------------------------------------------
                             SWR1 OUTPUT PRINT TIMES
                        STRESS PERIOD   25   TIME STEP  2279
 --------------- --------------- --------------- --------------- ---------------
     0.35988E+06                                                                
 -------------------------------------------------------------------------------
 
 SOLVING FOR HEAD 
 INITIAL HNEW IS AN EXACT SOLUTION.

 NO OUTPUT CONTROL FOR STRESS PERIOD   25   TIME STEP 2280

 -------------------------------------------------------------------------------
                             SWR1 OUTPUT PRINT TIMES
                        STRESS PERIOD   25   TIME STEP  2280
 --------------- --------------- --------------- --------------- ---------------
     0.36000E+06                                                                
 -------------------------------------------------------------------------------
 
 SOLVING FOR HEAD 
 INITIAL HNEW IS AN EXACT SOLUTION.

 NO OUTPUT CONTROL FOR STRESS PERIOD   25   TIME STEP 2281

 -------------------------------------------------------------------------------
                             SWR1 OUTPUT PRINT TIMES
                        STRESS PERIOD   25   TIME STEP  2281
 --------------- --------------- --------------- --------------- ---------------
     0.36012E+06                                                                
 -------------------------------------------------------------------------------
 
 SOLVING FOR HEAD 
 INITIAL HNEW IS AN EXACT SOLUTION.

 NO OUTPUT CONTROL FOR STRESS PERIOD   25   TIME STEP 2282

 -------------------------------------------------------------------------------
                             SWR1 OUTPUT PRINT TIMES
                        STRESS PERIOD   25   TIME STEP  2282
 --------------- --------------- --------------- --------------- ---------------
     0.36024E+06                                                                
 -------------------------------------------------------------------------------
 
 SOLVING FOR HEAD 
 INITIAL HNEW IS AN EXACT SOLUTION.

 NO OUTPUT CONTROL FOR STRESS PERIOD   25   TIME STEP 2283

 -------------------------------------------------------------------------------
                             SWR1 OUTPUT PRINT TIMES
                        STRESS PERIOD   25   TIME STEP  2283
 --------------- --------------- --------------- --------------- ---------------
     0.36036E+06                                                                
 -------------------------------------------------------------------------------
 
 SOLVING FOR HEAD 
 INITIAL HNEW IS AN EXACT SOLUTION.

 NO OUTPUT CONTROL FOR STRESS PERIOD   25   TIME STEP 2284

 -------------------------------------------------------------------------------
                             SWR1 OUTPUT PRINT TIMES
                        STRESS PERIOD   25   TIME STEP  2284
 --------------- --------------- --------------- --------------- ---------------
     0.36048E+06                                                                
 -------------------------------------------------------------------------------
 
 SOLVING FOR HEAD 
 INITIAL HNEW IS AN EXACT SOLUTION.

 NO OUTPUT CONTROL FOR STRESS PERIOD   25   TIME STEP 2285

 -------------------------------------------------------------------------------
                             SWR1 OUTPUT PRINT TIMES
                        STRESS PERIOD   25   TIME STEP  2285
 --------------- --------------- --------------- --------------- ---------------
     0.36060E+06                                                                
 -------------------------------------------------------------------------------
 
 SOLVING FOR HEAD 
 INITIAL HNEW IS AN EXACT SOLUTION.

 NO OUTPUT CONTROL FOR STRESS PERIOD   25   TIME STEP 2286

 -------------------------------------------------------------------------------
                             SWR1 OUTPUT PRINT TIMES
                        STRESS PERIOD   25   TIME STEP  2286
 --------------- --------------- --------------- --------------- ---------------
     0.36072E+06                                                                
 -------------------------------------------------------------------------------
 
 SOLVING FOR HEAD 
 INITIAL HNEW IS AN EXACT SOLUTION.

 NO OUTPUT CONTROL FOR STRESS PERIOD   25   TIME STEP 2287

 -------------------------------------------------------------------------------
                             SWR1 OUTPUT PRINT TIMES
                        STRESS PERIOD   25   TIME STEP  2287
 --------------- --------------- --------------- --------------- ---------------
     0.36084E+06                                                                
 -------------------------------------------------------------------------------
 
 SOLVING FOR HEAD 
 INITIAL HNEW IS AN EXACT SOLUTION.

 NO OUTPUT CONTROL FOR STRESS PERIOD   25   TIME STEP 2288

 -------------------------------------------------------------------------------
                             SWR1 OUTPUT PRINT TIMES
                        STRESS PERIOD   25   TIME STEP  2288
 --------------- --------------- --------------- --------------- ---------------
     0.36096E+06                                                                
 -------------------------------------------------------------------------------
 
 SOLVING FOR HEAD 
 INITIAL HNEW IS AN EXACT SOLUTION.

 NO OUTPUT CONTROL FOR STRESS PERIOD   25   TIME STEP 2289

 -------------------------------------------------------------------------------
                             SWR1 OUTPUT PRINT TIMES
                        STRESS PERIOD   25   TIME STEP  2289
 --------------- --------------- --------------- --------------- ---------------
     0.36108E+06                                                                
 -------------------------------------------------------------------------------
 
 SOLVING FOR HEAD 
 INITIAL HNEW IS AN EXACT SOLUTION.

 NO OUTPUT CONTROL FOR STRESS PERIOD   25   TIME STEP 2290

 -------------------------------------------------------------------------------
                             SWR1 OUTPUT PRINT TIMES
                        STRESS PERIOD   25   TIME STEP  2290
 --------------- --------------- --------------- --------------- ---------------
     0.36120E+06                                                                
 -------------------------------------------------------------------------------
 
 SOLVING FOR HEAD 
 INITIAL HNEW IS AN EXACT SOLUTION.

 NO OUTPUT CONTROL FOR STRESS PERIOD   25   TIME STEP 2291

 -------------------------------------------------------------------------------
                             SWR1 OUTPUT PRINT TIMES
                        STRESS PERIOD   25   TIME STEP  2291
 --------------- --------------- --------------- --------------- ---------------
     0.36132E+06                                                                
 -------------------------------------------------------------------------------
 
 SOLVING FOR HEAD 
 INITIAL HNEW IS AN EXACT SOLUTION.

 NO OUTPUT CONTROL FOR STRESS PERIOD   25   TIME STEP 2292

 -------------------------------------------------------------------------------
                             SWR1 OUTPUT PRINT TIMES
                        STRESS PERIOD   25   TIME STEP  2292
 --------------- --------------- --------------- --------------- ---------------
     0.36144E+06                                                                
 -------------------------------------------------------------------------------
 
 SOLVING FOR HEAD 
 INITIAL HNEW IS AN EXACT SOLUTION.

 NO OUTPUT CONTROL FOR STRESS PERIOD   25   TIME STEP 2293

 -------------------------------------------------------------------------------
                             SWR1 OUTPUT PRINT TIMES
                        STRESS PERIOD   25   TIME STEP  2293
 --------------- --------------- --------------- --------------- ---------------
     0.36156E+06                                                                
 -------------------------------------------------------------------------------
 
 SOLVING FOR HEAD 
 INITIAL HNEW IS AN EXACT SOLUTION.

 NO OUTPUT CONTROL FOR STRESS PERIOD   25   TIME STEP 2294

 -------------------------------------------------------------------------------
                             SWR1 OUTPUT PRINT TIMES
                        STRESS PERIOD   25   TIME STEP  2294
 --------------- --------------- --------------- --------------- ---------------
     0.36168E+06                                                                
 -------------------------------------------------------------------------------
 
 SOLVING FOR HEAD 
 INITIAL HNEW IS AN EXACT SOLUTION.

 NO OUTPUT CONTROL FOR STRESS PERIOD   25   TIME STEP 2295

 -------------------------------------------------------------------------------
                             SWR1 OUTPUT PRINT TIMES
                        STRESS PERIOD   25   TIME STEP  2295
 --------------- --------------- --------------- --------------- ---------------
     0.36180E+06                                                                
 -------------------------------------------------------------------------------
 
 SOLVING FOR HEAD 
 INITIAL HNEW IS AN EXACT SOLUTION.

 NO OUTPUT CONTROL FOR STRESS PERIOD   25   TIME STEP 2296

 -------------------------------------------------------------------------------
                             SWR1 OUTPUT PRINT TIMES
                        STRESS PERIOD   25   TIME STEP  2296
 --------------- --------------- --------------- --------------- ---------------
     0.36192E+06                                                                
 -------------------------------------------------------------------------------
 
 SOLVING FOR HEAD 
 INITIAL HNEW IS AN EXACT SOLUTION.

 NO OUTPUT CONTROL FOR STRESS PERIOD   25   TIME STEP 2297

 -------------------------------------------------------------------------------
                             SWR1 OUTPUT PRINT TIMES
                        STRESS PERIOD   25   TIME STEP  2297
 --------------- --------------- --------------- --------------- ---------------
     0.36204E+06                                                                
 -------------------------------------------------------------------------------
 
 SOLVING FOR HEAD 
 INITIAL HNEW IS AN EXACT SOLUTION.

 NO OUTPUT CONTROL FOR STRESS PERIOD   25   TIME STEP 2298

 -------------------------------------------------------------------------------
                             SWR1 OUTPUT PRINT TIMES
                        STRESS PERIOD   25   TIME STEP  2298
 --------------- --------------- --------------- --------------- ---------------
     0.36216E+06                                                                
 -------------------------------------------------------------------------------
 
 SOLVING FOR HEAD 
 INITIAL HNEW IS AN EXACT SOLUTION.

 NO OUTPUT CONTROL FOR STRESS PERIOD   25   TIME STEP 2299

 -------------------------------------------------------------------------------
                             SWR1 OUTPUT PRINT TIMES
                        STRESS PERIOD   25   TIME STEP  2299
 --------------- --------------- --------------- --------------- ---------------
     0.36228E+06                                                                
 -------------------------------------------------------------------------------
 
 SOLVING FOR HEAD 
 INITIAL HNEW IS AN EXACT SOLUTION.

 NO OUTPUT CONTROL FOR STRESS PERIOD   25   TIME STEP 2300

 -------------------------------------------------------------------------------
                             SWR1 OUTPUT PRINT TIMES
                        STRESS PERIOD   25   TIME STEP  2300
 --------------- --------------- --------------- --------------- ---------------
     0.36240E+06                                                                
 -------------------------------------------------------------------------------
 
 SOLVING FOR HEAD 
 INITIAL HNEW IS AN EXACT SOLUTION.

 NO OUTPUT CONTROL FOR STRESS PERIOD   25   TIME STEP 2301

 -------------------------------------------------------------------------------
                             SWR1 OUTPUT PRINT TIMES
                        STRESS PERIOD   25   TIME STEP  2301
 --------------- --------------- --------------- --------------- ---------------
     0.36252E+06                                                                
 -------------------------------------------------------------------------------
 
 SOLVING FOR HEAD 
 INITIAL HNEW IS AN EXACT SOLUTION.

 NO OUTPUT CONTROL FOR STRESS PERIOD   25   TIME STEP 2302

 -------------------------------------------------------------------------------
                             SWR1 OUTPUT PRINT TIMES
                        STRESS PERIOD   25   TIME STEP  2302
 --------------- --------------- --------------- --------------- ---------------
     0.36264E+06                                                                
 -------------------------------------------------------------------------------
 
 SOLVING FOR HEAD 
 INITIAL HNEW IS AN EXACT SOLUTION.

 NO OUTPUT CONTROL FOR STRESS PERIOD   25   TIME STEP 2303

 -------------------------------------------------------------------------------
                             SWR1 OUTPUT PRINT TIMES
                        STRESS PERIOD   25   TIME STEP  2303
 --------------- --------------- --------------- --------------- ---------------
     0.36276E+06                                                                
 -------------------------------------------------------------------------------
 
 SOLVING FOR HEAD 
 INITIAL HNEW IS AN EXACT SOLUTION.

 NO OUTPUT CONTROL FOR STRESS PERIOD   25   TIME STEP 2304

 -------------------------------------------------------------------------------
                             SWR1 OUTPUT PRINT TIMES
                        STRESS PERIOD   25   TIME STEP  2304
 --------------- --------------- --------------- --------------- ---------------
     0.36288E+06                                                                
 -------------------------------------------------------------------------------
 
 SOLVING FOR HEAD 
 INITIAL HNEW IS AN EXACT SOLUTION.

 NO OUTPUT CONTROL FOR STRESS PERIOD   25   TIME STEP 2305

 -------------------------------------------------------------------------------
                             SWR1 OUTPUT PRINT TIMES
                        STRESS PERIOD   25   TIME STEP  2305
 --------------- --------------- --------------- --------------- ---------------
     0.36300E+06                                                                
 -------------------------------------------------------------------------------
 
 SOLVING FOR HEAD 
 INITIAL HNEW IS AN EXACT SOLUTION.

 NO OUTPUT CONTROL FOR STRESS PERIOD   25   TIME STEP 2306

 -------------------------------------------------------------------------------
                             SWR1 OUTPUT PRINT TIMES
                        STRESS PERIOD   25   TIME STEP  2306
 --------------- --------------- --------------- --------------- ---------------
     0.36312E+06                                                                
 -------------------------------------------------------------------------------
 
 SOLVING FOR HEAD 
 INITIAL HNEW IS AN EXACT SOLUTION.

 NO OUTPUT CONTROL FOR STRESS PERIOD   25   TIME STEP 2307

 -------------------------------------------------------------------------------
                             SWR1 OUTPUT PRINT TIMES
                        STRESS PERIOD   25   TIME STEP  2307
 --------------- --------------- --------------- --------------- ---------------
     0.36324E+06                                                                
 -------------------------------------------------------------------------------
 
 SOLVING FOR HEAD 
 INITIAL HNEW IS AN EXACT SOLUTION.

 NO OUTPUT CONTROL FOR STRESS PERIOD   25   TIME STEP 2308

 -------------------------------------------------------------------------------
                             SWR1 OUTPUT PRINT TIMES
                        STRESS PERIOD   25   TIME STEP  2308
 --------------- --------------- --------------- --------------- ---------------
     0.36336E+06                                                                
 -------------------------------------------------------------------------------
 
 SOLVING FOR HEAD 
 INITIAL HNEW IS AN EXACT SOLUTION.

 NO OUTPUT CONTROL FOR STRESS PERIOD   25   TIME STEP 2309

 -------------------------------------------------------------------------------
                             SWR1 OUTPUT PRINT TIMES
                        STRESS PERIOD   25   TIME STEP  2309
 --------------- --------------- --------------- --------------- ---------------
     0.36348E+06                                                                
 -------------------------------------------------------------------------------
 
 SOLVING FOR HEAD 
 INITIAL HNEW IS AN EXACT SOLUTION.

 NO OUTPUT CONTROL FOR STRESS PERIOD   25   TIME STEP 2310

 -------------------------------------------------------------------------------
                             SWR1 OUTPUT PRINT TIMES
                        STRESS PERIOD   25   TIME STEP  2310
 --------------- --------------- --------------- --------------- ---------------
     0.36360E+06                                                                
 -------------------------------------------------------------------------------
 
 SOLVING FOR HEAD 
 INITIAL HNEW IS AN EXACT SOLUTION.

 NO OUTPUT CONTROL FOR STRESS PERIOD   25   TIME STEP 2311

 -------------------------------------------------------------------------------
                             SWR1 OUTPUT PRINT TIMES
                        STRESS PERIOD   25   TIME STEP  2311
 --------------- --------------- --------------- --------------- ---------------
     0.36372E+06                                                                
 -------------------------------------------------------------------------------
 
 SOLVING FOR HEAD 
 INITIAL HNEW IS AN EXACT SOLUTION.

 NO OUTPUT CONTROL FOR STRESS PERIOD   25   TIME STEP 2312

 -------------------------------------------------------------------------------
                             SWR1 OUTPUT PRINT TIMES
                        STRESS PERIOD   25   TIME STEP  2312
 --------------- --------------- --------------- --------------- ---------------
     0.36384E+06                                                                
 -------------------------------------------------------------------------------
 
 SOLVING FOR HEAD 
 INITIAL HNEW IS AN EXACT SOLUTION.

 NO OUTPUT CONTROL FOR STRESS PERIOD   25   TIME STEP 2313

 -------------------------------------------------------------------------------
                             SWR1 OUTPUT PRINT TIMES
                        STRESS PERIOD   25   TIME STEP  2313
 --------------- --------------- --------------- --------------- ---------------
     0.36396E+06                                                                
 -------------------------------------------------------------------------------
 
 SOLVING FOR HEAD 
 INITIAL HNEW IS AN EXACT SOLUTION.

 NO OUTPUT CONTROL FOR STRESS PERIOD   25   TIME STEP 2314

 -------------------------------------------------------------------------------
                             SWR1 OUTPUT PRINT TIMES
                        STRESS PERIOD   25   TIME STEP  2314
 --------------- --------------- --------------- --------------- ---------------
     0.36408E+06                                                                
 -------------------------------------------------------------------------------
 
 SOLVING FOR HEAD 
 INITIAL HNEW IS AN EXACT SOLUTION.

 NO OUTPUT CONTROL FOR STRESS PERIOD   25   TIME STEP 2315

 -------------------------------------------------------------------------------
                             SWR1 OUTPUT PRINT TIMES
                        STRESS PERIOD   25   TIME STEP  2315
 --------------- --------------- --------------- --------------- ---------------
     0.36420E+06                                                                
 -------------------------------------------------------------------------------
 
 SOLVING FOR HEAD 
 INITIAL HNEW IS AN EXACT SOLUTION.

 NO OUTPUT CONTROL FOR STRESS PERIOD   25   TIME STEP 2316

 -------------------------------------------------------------------------------
                             SWR1 OUTPUT PRINT TIMES
                        STRESS PERIOD   25   TIME STEP  2316
 --------------- --------------- --------------- --------------- ---------------
     0.36432E+06                                                                
 -------------------------------------------------------------------------------
 
 SOLVING FOR HEAD 
 INITIAL HNEW IS AN EXACT SOLUTION.

 NO OUTPUT CONTROL FOR STRESS PERIOD   25   TIME STEP 2317

 -------------------------------------------------------------------------------
                             SWR1 OUTPUT PRINT TIMES
                        STRESS PERIOD   25   TIME STEP  2317
 --------------- --------------- --------------- --------------- ---------------
     0.36444E+06                                                                
 -------------------------------------------------------------------------------
 
 SOLVING FOR HEAD 
 INITIAL HNEW IS AN EXACT SOLUTION.

 NO OUTPUT CONTROL FOR STRESS PERIOD   25   TIME STEP 2318

 -------------------------------------------------------------------------------
                             SWR1 OUTPUT PRINT TIMES
                        STRESS PERIOD   25   TIME STEP  2318
 --------------- --------------- --------------- --------------- ---------------
     0.36456E+06                                                                
 -------------------------------------------------------------------------------
 
 SOLVING FOR HEAD 
 INITIAL HNEW IS AN EXACT SOLUTION.

 NO OUTPUT CONTROL FOR STRESS PERIOD   25   TIME STEP 2319

 -------------------------------------------------------------------------------
                             SWR1 OUTPUT PRINT TIMES
                        STRESS PERIOD   25   TIME STEP  2319
 --------------- --------------- --------------- --------------- ---------------
     0.36468E+06                                                                
 -------------------------------------------------------------------------------
 
 SOLVING FOR HEAD 
 INITIAL HNEW IS AN EXACT SOLUTION.

 NO OUTPUT CONTROL FOR STRESS PERIOD   25   TIME STEP 2320

 -------------------------------------------------------------------------------
                             SWR1 OUTPUT PRINT TIMES
                        STRESS PERIOD   25   TIME STEP  2320
 --------------- --------------- --------------- --------------- ---------------
     0.36480E+06                                                                
 -------------------------------------------------------------------------------
 
 SOLVING FOR HEAD 
 INITIAL HNEW IS AN EXACT SOLUTION.

 NO OUTPUT CONTROL FOR STRESS PERIOD   25   TIME STEP 2321

 -------------------------------------------------------------------------------
                             SWR1 OUTPUT PRINT TIMES
                        STRESS PERIOD   25   TIME STEP  2321
 --------------- --------------- --------------- --------------- ---------------
     0.36492E+06                                                                
 -------------------------------------------------------------------------------
 
 SOLVING FOR HEAD 
 INITIAL HNEW IS AN EXACT SOLUTION.

 NO OUTPUT CONTROL FOR STRESS PERIOD   25   TIME STEP 2322

 -------------------------------------------------------------------------------
                             SWR1 OUTPUT PRINT TIMES
                        STRESS PERIOD   25   TIME STEP  2322
 --------------- --------------- --------------- --------------- ---------------
     0.36504E+06                                                                
 -------------------------------------------------------------------------------
 
 SOLVING FOR HEAD 
 INITIAL HNEW IS AN EXACT SOLUTION.

 NO OUTPUT CONTROL FOR STRESS PERIOD   25   TIME STEP 2323

 -------------------------------------------------------------------------------
                             SWR1 OUTPUT PRINT TIMES
                        STRESS PERIOD   25   TIME STEP  2323
 --------------- --------------- --------------- --------------- ---------------
     0.36516E+06                                                                
 -------------------------------------------------------------------------------
 
 SOLVING FOR HEAD 
 INITIAL HNEW IS AN EXACT SOLUTION.

 NO OUTPUT CONTROL FOR STRESS PERIOD   25   TIME STEP 2324

 -------------------------------------------------------------------------------
                             SWR1 OUTPUT PRINT TIMES
                        STRESS PERIOD   25   TIME STEP  2324
 --------------- --------------- --------------- --------------- ---------------
     0.36528E+06                                                                
 -------------------------------------------------------------------------------
 
 SOLVING FOR HEAD 
 INITIAL HNEW IS AN EXACT SOLUTION.

 NO OUTPUT CONTROL FOR STRESS PERIOD   25   TIME STEP 2325

 -------------------------------------------------------------------------------
                             SWR1 OUTPUT PRINT TIMES
                        STRESS PERIOD   25   TIME STEP  2325
 --------------- --------------- --------------- --------------- ---------------
     0.36540E+06                                                                
 -------------------------------------------------------------------------------
 
 SOLVING FOR HEAD 
 INITIAL HNEW IS AN EXACT SOLUTION.

 NO OUTPUT CONTROL FOR STRESS PERIOD   25   TIME STEP 2326

 -------------------------------------------------------------------------------
                             SWR1 OUTPUT PRINT TIMES
                        STRESS PERIOD   25   TIME STEP  2326
 --------------- --------------- --------------- --------------- ---------------
     0.36552E+06                                                                
 -------------------------------------------------------------------------------
 
 SOLVING FOR HEAD 
 INITIAL HNEW IS AN EXACT SOLUTION.

 NO OUTPUT CONTROL FOR STRESS PERIOD   25   TIME STEP 2327

 -------------------------------------------------------------------------------
                             SWR1 OUTPUT PRINT TIMES
                        STRESS PERIOD   25   TIME STEP  2327
 --------------- --------------- --------------- --------------- ---------------
     0.36564E+06                                                                
 -------------------------------------------------------------------------------
 
 SOLVING FOR HEAD 
 INITIAL HNEW IS AN EXACT SOLUTION.

 NO OUTPUT CONTROL FOR STRESS PERIOD   25   TIME STEP 2328

 -------------------------------------------------------------------------------
                             SWR1 OUTPUT PRINT TIMES
                        STRESS PERIOD   25   TIME STEP  2328
 --------------- --------------- --------------- --------------- ---------------
     0.36576E+06                                                                
 -------------------------------------------------------------------------------
 
 SOLVING FOR HEAD 
 INITIAL HNEW IS AN EXACT SOLUTION.

 NO OUTPUT CONTROL FOR STRESS PERIOD   25   TIME STEP 2329

 -------------------------------------------------------------------------------
                             SWR1 OUTPUT PRINT TIMES
                        STRESS PERIOD   25   TIME STEP  2329
 --------------- --------------- --------------- --------------- ---------------
     0.36588E+06                                                                
 -------------------------------------------------------------------------------
 
 SOLVING FOR HEAD 
 INITIAL HNEW IS AN EXACT SOLUTION.

 NO OUTPUT CONTROL FOR STRESS PERIOD   25   TIME STEP 2330

 -------------------------------------------------------------------------------
                             SWR1 OUTPUT PRINT TIMES
                        STRESS PERIOD   25   TIME STEP  2330
 --------------- --------------- --------------- --------------- ---------------
     0.36600E+06                                                                
 -------------------------------------------------------------------------------
 
 SOLVING FOR HEAD 
 INITIAL HNEW IS AN EXACT SOLUTION.

 NO OUTPUT CONTROL FOR STRESS PERIOD   25   TIME STEP 2331

 -------------------------------------------------------------------------------
                             SWR1 OUTPUT PRINT TIMES
                        STRESS PERIOD   25   TIME STEP  2331
 --------------- --------------- --------------- --------------- ---------------
     0.36612E+06                                                                
 -------------------------------------------------------------------------------
 
 SOLVING FOR HEAD 
 INITIAL HNEW IS AN EXACT SOLUTION.

 NO OUTPUT CONTROL FOR STRESS PERIOD   25   TIME STEP 2332

 -------------------------------------------------------------------------------
                             SWR1 OUTPUT PRINT TIMES
                        STRESS PERIOD   25   TIME STEP  2332
 --------------- --------------- --------------- --------------- ---------------
     0.36624E+06                                                                
 -------------------------------------------------------------------------------
 
 SOLVING FOR HEAD 
 INITIAL HNEW IS AN EXACT SOLUTION.

 NO OUTPUT CONTROL FOR STRESS PERIOD   25   TIME STEP 2333

 -------------------------------------------------------------------------------
                             SWR1 OUTPUT PRINT TIMES
                        STRESS PERIOD   25   TIME STEP  2333
 --------------- --------------- --------------- --------------- ---------------
     0.36636E+06                                                                
 -------------------------------------------------------------------------------
 
 SOLVING FOR HEAD 
 INITIAL HNEW IS AN EXACT SOLUTION.

 NO OUTPUT CONTROL FOR STRESS PERIOD   25   TIME STEP 2334

 -------------------------------------------------------------------------------
                             SWR1 OUTPUT PRINT TIMES
                        STRESS PERIOD   25   TIME STEP  2334
 --------------- --------------- --------------- --------------- ---------------
     0.36648E+06                                                                
 -------------------------------------------------------------------------------
 
 SOLVING FOR HEAD 
 INITIAL HNEW IS AN EXACT SOLUTION.

 NO OUTPUT CONTROL FOR STRESS PERIOD   25   TIME STEP 2335

 -------------------------------------------------------------------------------
                             SWR1 OUTPUT PRINT TIMES
                        STRESS PERIOD   25   TIME STEP  2335
 --------------- --------------- --------------- --------------- ---------------
     0.36660E+06                                                                
 -------------------------------------------------------------------------------
 
 SOLVING FOR HEAD 
 INITIAL HNEW IS AN EXACT SOLUTION.

 NO OUTPUT CONTROL FOR STRESS PERIOD   25   TIME STEP 2336

 -------------------------------------------------------------------------------
                             SWR1 OUTPUT PRINT TIMES
                        STRESS PERIOD   25   TIME STEP  2336
 --------------- --------------- --------------- --------------- ---------------
     0.36672E+06                                                                
 -------------------------------------------------------------------------------
 
 SOLVING FOR HEAD 
 INITIAL HNEW IS AN EXACT SOLUTION.

 NO OUTPUT CONTROL FOR STRESS PERIOD   25   TIME STEP 2337

 -------------------------------------------------------------------------------
                             SWR1 OUTPUT PRINT TIMES
                        STRESS PERIOD   25   TIME STEP  2337
 --------------- --------------- --------------- --------------- ---------------
     0.36684E+06                                                                
 -------------------------------------------------------------------------------
 
 SOLVING FOR HEAD 
 INITIAL HNEW IS AN EXACT SOLUTION.

 NO OUTPUT CONTROL FOR STRESS PERIOD   25   TIME STEP 2338

 -------------------------------------------------------------------------------
                             SWR1 OUTPUT PRINT TIMES
                        STRESS PERIOD   25   TIME STEP  2338
 --------------- --------------- --------------- --------------- ---------------
     0.36696E+06                                                                
 -------------------------------------------------------------------------------
 
 SOLVING FOR HEAD 
 INITIAL HNEW IS AN EXACT SOLUTION.

 NO OUTPUT CONTROL FOR STRESS PERIOD   25   TIME STEP 2339

 -------------------------------------------------------------------------------
                             SWR1 OUTPUT PRINT TIMES
                        STRESS PERIOD   25   TIME STEP  2339
 --------------- --------------- --------------- --------------- ---------------
     0.36708E+06                                                                
 -------------------------------------------------------------------------------
 
 SOLVING FOR HEAD 
 INITIAL HNEW IS AN EXACT SOLUTION.

 NO OUTPUT CONTROL FOR STRESS PERIOD   25   TIME STEP 2340

 -------------------------------------------------------------------------------
                             SWR1 OUTPUT PRINT TIMES
                        STRESS PERIOD   25   TIME STEP  2340
 --------------- --------------- --------------- --------------- ---------------
     0.36720E+06                                                                
 -------------------------------------------------------------------------------
 
 SOLVING FOR HEAD 
 INITIAL HNEW IS AN EXACT SOLUTION.

 NO OUTPUT CONTROL FOR STRESS PERIOD   25   TIME STEP 2341

 -------------------------------------------------------------------------------
                             SWR1 OUTPUT PRINT TIMES
                        STRESS PERIOD   25   TIME STEP  2341
 --------------- --------------- --------------- --------------- ---------------
     0.36732E+06                                                                
 -------------------------------------------------------------------------------
 
 SOLVING FOR HEAD 
 INITIAL HNEW IS AN EXACT SOLUTION.

 NO OUTPUT CONTROL FOR STRESS PERIOD   25   TIME STEP 2342

 -------------------------------------------------------------------------------
                             SWR1 OUTPUT PRINT TIMES
                        STRESS PERIOD   25   TIME STEP  2342
 --------------- --------------- --------------- --------------- ---------------
     0.36744E+06                                                                
 -------------------------------------------------------------------------------
 
 SOLVING FOR HEAD 
 INITIAL HNEW IS AN EXACT SOLUTION.

 NO OUTPUT CONTROL FOR STRESS PERIOD   25   TIME STEP 2343

 -------------------------------------------------------------------------------
                             SWR1 OUTPUT PRINT TIMES
                        STRESS PERIOD   25   TIME STEP  2343
 --------------- --------------- --------------- --------------- ---------------
     0.36756E+06                                                                
 -------------------------------------------------------------------------------
 
 SOLVING FOR HEAD 
 INITIAL HNEW IS AN EXACT SOLUTION.

 NO OUTPUT CONTROL FOR STRESS PERIOD   25   TIME STEP 2344

 -------------------------------------------------------------------------------
                             SWR1 OUTPUT PRINT TIMES
                        STRESS PERIOD   25   TIME STEP  2344
 --------------- --------------- --------------- --------------- ---------------
     0.36768E+06                                                                
 -------------------------------------------------------------------------------
 
 SOLVING FOR HEAD 
 INITIAL HNEW IS AN EXACT SOLUTION.

 NO OUTPUT CONTROL FOR STRESS PERIOD   25   TIME STEP 2345

 -------------------------------------------------------------------------------
                             SWR1 OUTPUT PRINT TIMES
                        STRESS PERIOD   25   TIME STEP  2345
 --------------- --------------- --------------- --------------- ---------------
     0.36780E+06                                                                
 -------------------------------------------------------------------------------
 
 SOLVING FOR HEAD 
 INITIAL HNEW IS AN EXACT SOLUTION.

 NO OUTPUT CONTROL FOR STRESS PERIOD   25   TIME STEP 2346

 -------------------------------------------------------------------------------
                             SWR1 OUTPUT PRINT TIMES
                        STRESS PERIOD   25   TIME STEP  2346
 --------------- --------------- --------------- --------------- ---------------
     0.36792E+06                                                                
 -------------------------------------------------------------------------------
 
 SOLVING FOR HEAD 
 INITIAL HNEW IS AN EXACT SOLUTION.

 NO OUTPUT CONTROL FOR STRESS PERIOD   25   TIME STEP 2347

 -------------------------------------------------------------------------------
                             SWR1 OUTPUT PRINT TIMES
                        STRESS PERIOD   25   TIME STEP  2347
 --------------- --------------- --------------- --------------- ---------------
     0.36804E+06                                                                
 -------------------------------------------------------------------------------
 
 SOLVING FOR HEAD 
 INITIAL HNEW IS AN EXACT SOLUTION.

 NO OUTPUT CONTROL FOR STRESS PERIOD   25   TIME STEP 2348

 -------------------------------------------------------------------------------
                             SWR1 OUTPUT PRINT TIMES
                        STRESS PERIOD   25   TIME STEP  2348
 --------------- --------------- --------------- --------------- ---------------
     0.36816E+06                                                                
 -------------------------------------------------------------------------------
 
 SOLVING FOR HEAD 
 INITIAL HNEW IS AN EXACT SOLUTION.

 NO OUTPUT CONTROL FOR STRESS PERIOD   25   TIME STEP 2349

 -------------------------------------------------------------------------------
                             SWR1 OUTPUT PRINT TIMES
                        STRESS PERIOD   25   TIME STEP  2349
 --------------- --------------- --------------- --------------- ---------------
     0.36828E+06                                                                
 -------------------------------------------------------------------------------
 
 SOLVING FOR HEAD 
 INITIAL HNEW IS AN EXACT SOLUTION.

 NO OUTPUT CONTROL FOR STRESS PERIOD   25   TIME STEP 2350

 -------------------------------------------------------------------------------
                             SWR1 OUTPUT PRINT TIMES
                        STRESS PERIOD   25   TIME STEP  2350
 --------------- --------------- --------------- --------------- ---------------
     0.36840E+06                                                                
 -------------------------------------------------------------------------------
 
 SOLVING FOR HEAD 
 INITIAL HNEW IS AN EXACT SOLUTION.

 NO OUTPUT CONTROL FOR STRESS PERIOD   25   TIME STEP 2351

 -------------------------------------------------------------------------------
                             SWR1 OUTPUT PRINT TIMES
                        STRESS PERIOD   25   TIME STEP  2351
 --------------- --------------- --------------- --------------- ---------------
     0.36852E+06                                                                
 -------------------------------------------------------------------------------
 
 SOLVING FOR HEAD 
 INITIAL HNEW IS AN EXACT SOLUTION.

 NO OUTPUT CONTROL FOR STRESS PERIOD   25   TIME STEP 2352

 -------------------------------------------------------------------------------
                             SWR1 OUTPUT PRINT TIMES
                        STRESS PERIOD   25   TIME STEP  2352
 --------------- --------------- --------------- --------------- ---------------
     0.36864E+06                                                                
 -------------------------------------------------------------------------------
 
 SOLVING FOR HEAD 
 INITIAL HNEW IS AN EXACT SOLUTION.

 NO OUTPUT CONTROL FOR STRESS PERIOD   25   TIME STEP 2353

 -------------------------------------------------------------------------------
                             SWR1 OUTPUT PRINT TIMES
                        STRESS PERIOD   25   TIME STEP  2353
 --------------- --------------- --------------- --------------- ---------------
     0.36876E+06                                                                
 -------------------------------------------------------------------------------
 
 SOLVING FOR HEAD 
 INITIAL HNEW IS AN EXACT SOLUTION.

 NO OUTPUT CONTROL FOR STRESS PERIOD   25   TIME STEP 2354

 -------------------------------------------------------------------------------
                             SWR1 OUTPUT PRINT TIMES
                        STRESS PERIOD   25   TIME STEP  2354
 --------------- --------------- --------------- --------------- ---------------
     0.36888E+06                                                                
 -------------------------------------------------------------------------------
 
 SOLVING FOR HEAD 
 INITIAL HNEW IS AN EXACT SOLUTION.

 NO OUTPUT CONTROL FOR STRESS PERIOD   25   TIME STEP 2355

 -------------------------------------------------------------------------------
                             SWR1 OUTPUT PRINT TIMES
                        STRESS PERIOD   25   TIME STEP  2355
 --------------- --------------- --------------- --------------- ---------------
     0.36900E+06                                                                
 -------------------------------------------------------------------------------
 
 SOLVING FOR HEAD 
 INITIAL HNEW IS AN EXACT SOLUTION.

 NO OUTPUT CONTROL FOR STRESS PERIOD   25   TIME STEP 2356

 -------------------------------------------------------------------------------
                             SWR1 OUTPUT PRINT TIMES
                        STRESS PERIOD   25   TIME STEP  2356
 --------------- --------------- --------------- --------------- ---------------
     0.36912E+06                                                                
 -------------------------------------------------------------------------------
 
 SOLVING FOR HEAD 
 INITIAL HNEW IS AN EXACT SOLUTION.

 NO OUTPUT CONTROL FOR STRESS PERIOD   25   TIME STEP 2357

 -------------------------------------------------------------------------------
                             SWR1 OUTPUT PRINT TIMES
                        STRESS PERIOD   25   TIME STEP  2357
 --------------- --------------- --------------- --------------- ---------------
     0.36924E+06                                                                
 -------------------------------------------------------------------------------
 
 SOLVING FOR HEAD 
 INITIAL HNEW IS AN EXACT SOLUTION.

 NO OUTPUT CONTROL FOR STRESS PERIOD   25   TIME STEP 2358

 -------------------------------------------------------------------------------
                             SWR1 OUTPUT PRINT TIMES
                        STRESS PERIOD   25   TIME STEP  2358
 --------------- --------------- --------------- --------------- ---------------
     0.36936E+06                                                                
 -------------------------------------------------------------------------------
 
 SOLVING FOR HEAD 
 INITIAL HNEW IS AN EXACT SOLUTION.

 NO OUTPUT CONTROL FOR STRESS PERIOD   25   TIME STEP 2359

 -------------------------------------------------------------------------------
                             SWR1 OUTPUT PRINT TIMES
                        STRESS PERIOD   25   TIME STEP  2359
 --------------- --------------- --------------- --------------- ---------------
     0.36948E+06                                                                
 -------------------------------------------------------------------------------
 
 SOLVING FOR HEAD 
 INITIAL HNEW IS AN EXACT SOLUTION.

 NO OUTPUT CONTROL FOR STRESS PERIOD   25   TIME STEP 2360

 -------------------------------------------------------------------------------
                             SWR1 OUTPUT PRINT TIMES
                        STRESS PERIOD   25   TIME STEP  2360
 --------------- --------------- --------------- --------------- ---------------
     0.36960E+06                                                                
 -------------------------------------------------------------------------------
 
 SOLVING FOR HEAD 
 INITIAL HNEW IS AN EXACT SOLUTION.

 NO OUTPUT CONTROL FOR STRESS PERIOD   25   TIME STEP 2361

 -------------------------------------------------------------------------------
                             SWR1 OUTPUT PRINT TIMES
                        STRESS PERIOD   25   TIME STEP  2361
 --------------- --------------- --------------- --------------- ---------------
     0.36972E+06                                                                
 -------------------------------------------------------------------------------
 
 SOLVING FOR HEAD 
 INITIAL HNEW IS AN EXACT SOLUTION.

 NO OUTPUT CONTROL FOR STRESS PERIOD   25   TIME STEP 2362

 -------------------------------------------------------------------------------
                             SWR1 OUTPUT PRINT TIMES
                        STRESS PERIOD   25   TIME STEP  2362
 --------------- --------------- --------------- --------------- ---------------
     0.36984E+06                                                                
 -------------------------------------------------------------------------------
 
 SOLVING FOR HEAD 
 INITIAL HNEW IS AN EXACT SOLUTION.

 NO OUTPUT CONTROL FOR STRESS PERIOD   25   TIME STEP 2363

 -------------------------------------------------------------------------------
                             SWR1 OUTPUT PRINT TIMES
                        STRESS PERIOD   25   TIME STEP  2363
 --------------- --------------- --------------- --------------- ---------------
     0.36996E+06                                                                
 -------------------------------------------------------------------------------
 
 SOLVING FOR HEAD 
 INITIAL HNEW IS AN EXACT SOLUTION.

 NO OUTPUT CONTROL FOR STRESS PERIOD   25   TIME STEP 2364

 -------------------------------------------------------------------------------
                             SWR1 OUTPUT PRINT TIMES
                        STRESS PERIOD   25   TIME STEP  2364
 --------------- --------------- --------------- --------------- ---------------
     0.37008E+06                                                                
 -------------------------------------------------------------------------------
 
 SOLVING FOR HEAD 
 INITIAL HNEW IS AN EXACT SOLUTION.

 NO OUTPUT CONTROL FOR STRESS PERIOD   25   TIME STEP 2365

 -------------------------------------------------------------------------------
                             SWR1 OUTPUT PRINT TIMES
                        STRESS PERIOD   25   TIME STEP  2365
 --------------- --------------- --------------- --------------- ---------------
     0.37020E+06                                                                
 -------------------------------------------------------------------------------
 
 SOLVING FOR HEAD 
 INITIAL HNEW IS AN EXACT SOLUTION.

 NO OUTPUT CONTROL FOR STRESS PERIOD   25   TIME STEP 2366

 -------------------------------------------------------------------------------
                             SWR1 OUTPUT PRINT TIMES
                        STRESS PERIOD   25   TIME STEP  2366
 --------------- --------------- --------------- --------------- ---------------
     0.37032E+06                                                                
 -------------------------------------------------------------------------------
 
 SOLVING FOR HEAD 
 INITIAL HNEW IS AN EXACT SOLUTION.

 NO OUTPUT CONTROL FOR STRESS PERIOD   25   TIME STEP 2367

 -------------------------------------------------------------------------------
                             SWR1 OUTPUT PRINT TIMES
                        STRESS PERIOD   25   TIME STEP  2367
 --------------- --------------- --------------- --------------- ---------------
     0.37044E+06                                                                
 -------------------------------------------------------------------------------
 
 SOLVING FOR HEAD 
 INITIAL HNEW IS AN EXACT SOLUTION.

 NO OUTPUT CONTROL FOR STRESS PERIOD   25   TIME STEP 2368

 -------------------------------------------------------------------------------
                             SWR1 OUTPUT PRINT TIMES
                        STRESS PERIOD   25   TIME STEP  2368
 --------------- --------------- --------------- --------------- ---------------
     0.37056E+06                                                                
 -------------------------------------------------------------------------------
 
 SOLVING FOR HEAD 
 INITIAL HNEW IS AN EXACT SOLUTION.

 NO OUTPUT CONTROL FOR STRESS PERIOD   25   TIME STEP 2369

 -------------------------------------------------------------------------------
                             SWR1 OUTPUT PRINT TIMES
                        STRESS PERIOD   25   TIME STEP  2369
 --------------- --------------- --------------- --------------- ---------------
     0.37068E+06                                                                
 -------------------------------------------------------------------------------
 
 SOLVING FOR HEAD 
 INITIAL HNEW IS AN EXACT SOLUTION.

 NO OUTPUT CONTROL FOR STRESS PERIOD   25   TIME STEP 2370

 -------------------------------------------------------------------------------
                             SWR1 OUTPUT PRINT TIMES
                        STRESS PERIOD   25   TIME STEP  2370
 --------------- --------------- --------------- --------------- ---------------
     0.37080E+06                                                                
 -------------------------------------------------------------------------------
 
 SOLVING FOR HEAD 
 INITIAL HNEW IS AN EXACT SOLUTION.

 NO OUTPUT CONTROL FOR STRESS PERIOD   25   TIME STEP 2371

 -------------------------------------------------------------------------------
                             SWR1 OUTPUT PRINT TIMES
                        STRESS PERIOD   25   TIME STEP  2371
 --------------- --------------- --------------- --------------- ---------------
     0.37092E+06                                                                
 -------------------------------------------------------------------------------
 
 SOLVING FOR HEAD 
 INITIAL HNEW IS AN EXACT SOLUTION.

 NO OUTPUT CONTROL FOR STRESS PERIOD   25   TIME STEP 2372

 -------------------------------------------------------------------------------
                             SWR1 OUTPUT PRINT TIMES
                        STRESS PERIOD   25   TIME STEP  2372
 --------------- --------------- --------------- --------------- ---------------
     0.37104E+06                                                                
 -------------------------------------------------------------------------------
 
 SOLVING FOR HEAD 
 INITIAL HNEW IS AN EXACT SOLUTION.

 NO OUTPUT CONTROL FOR STRESS PERIOD   25   TIME STEP 2373

 -------------------------------------------------------------------------------
                             SWR1 OUTPUT PRINT TIMES
                        STRESS PERIOD   25   TIME STEP  2373
 --------------- --------------- --------------- --------------- ---------------
     0.37116E+06                                                                
 -------------------------------------------------------------------------------
 
 SOLVING FOR HEAD 
 INITIAL HNEW IS AN EXACT SOLUTION.

 NO OUTPUT CONTROL FOR STRESS PERIOD   25   TIME STEP 2374

 -------------------------------------------------------------------------------
                             SWR1 OUTPUT PRINT TIMES
                        STRESS PERIOD   25   TIME STEP  2374
 --------------- --------------- --------------- --------------- ---------------
     0.37128E+06                                                                
 -------------------------------------------------------------------------------
 
 SOLVING FOR HEAD 
 INITIAL HNEW IS AN EXACT SOLUTION.

 NO OUTPUT CONTROL FOR STRESS PERIOD   25   TIME STEP 2375

 -------------------------------------------------------------------------------
                             SWR1 OUTPUT PRINT TIMES
                        STRESS PERIOD   25   TIME STEP  2375
 --------------- --------------- --------------- --------------- ---------------
     0.37140E+06                                                                
 -------------------------------------------------------------------------------
 
 SOLVING FOR HEAD 
 INITIAL HNEW IS AN EXACT SOLUTION.

 NO OUTPUT CONTROL FOR STRESS PERIOD   25   TIME STEP 2376

 -------------------------------------------------------------------------------
                             SWR1 OUTPUT PRINT TIMES
                        STRESS PERIOD   25   TIME STEP  2376
 --------------- --------------- --------------- --------------- ---------------
     0.37152E+06                                                                
 -------------------------------------------------------------------------------
 
 SOLVING FOR HEAD 
 INITIAL HNEW IS AN EXACT SOLUTION.

 NO OUTPUT CONTROL FOR STRESS PERIOD   25   TIME STEP 2377

 -------------------------------------------------------------------------------
                             SWR1 OUTPUT PRINT TIMES
                        STRESS PERIOD   25   TIME STEP  2377
 --------------- --------------- --------------- --------------- ---------------
     0.37164E+06                                                                
 -------------------------------------------------------------------------------
 
 SOLVING FOR HEAD 
 INITIAL HNEW IS AN EXACT SOLUTION.

 NO OUTPUT CONTROL FOR STRESS PERIOD   25   TIME STEP 2378

 -------------------------------------------------------------------------------
                             SWR1 OUTPUT PRINT TIMES
                        STRESS PERIOD   25   TIME STEP  2378
 --------------- --------------- --------------- --------------- ---------------
     0.37176E+06                                                                
 -------------------------------------------------------------------------------
 
 SOLVING FOR HEAD 
 INITIAL HNEW IS AN EXACT SOLUTION.

 NO OUTPUT CONTROL FOR STRESS PERIOD   25   TIME STEP 2379

 -------------------------------------------------------------------------------
                             SWR1 OUTPUT PRINT TIMES
                        STRESS PERIOD   25   TIME STEP  2379
 --------------- --------------- --------------- --------------- ---------------
     0.37188E+06                                                                
 -------------------------------------------------------------------------------
 
 SOLVING FOR HEAD 
 INITIAL HNEW IS AN EXACT SOLUTION.

 NO OUTPUT CONTROL FOR STRESS PERIOD   25   TIME STEP 2380

 -------------------------------------------------------------------------------
                             SWR1 OUTPUT PRINT TIMES
                        STRESS PERIOD   25   TIME STEP  2380
 --------------- --------------- --------------- --------------- ---------------
     0.37200E+06                                                                
 -------------------------------------------------------------------------------
 
 SOLVING FOR HEAD 
 INITIAL HNEW IS AN EXACT SOLUTION.

 NO OUTPUT CONTROL FOR STRESS PERIOD   25   TIME STEP 2381

 -------------------------------------------------------------------------------
                             SWR1 OUTPUT PRINT TIMES
                        STRESS PERIOD   25   TIME STEP  2381
 --------------- --------------- --------------- --------------- ---------------
     0.37212E+06                                                                
 -------------------------------------------------------------------------------
 
 SOLVING FOR HEAD 
 INITIAL HNEW IS AN EXACT SOLUTION.

 NO OUTPUT CONTROL FOR STRESS PERIOD   25   TIME STEP 2382

 -------------------------------------------------------------------------------
                             SWR1 OUTPUT PRINT TIMES
                        STRESS PERIOD   25   TIME STEP  2382
 --------------- --------------- --------------- --------------- ---------------
     0.37224E+06                                                                
 -------------------------------------------------------------------------------
 
 SOLVING FOR HEAD 
 INITIAL HNEW IS AN EXACT SOLUTION.

 NO OUTPUT CONTROL FOR STRESS PERIOD   25   TIME STEP 2383

 -------------------------------------------------------------------------------
                             SWR1 OUTPUT PRINT TIMES
                        STRESS PERIOD   25   TIME STEP  2383
 --------------- --------------- --------------- --------------- ---------------
     0.37236E+06                                                                
 -------------------------------------------------------------------------------
 
 SOLVING FOR HEAD 
 INITIAL HNEW IS AN EXACT SOLUTION.

 NO OUTPUT CONTROL FOR STRESS PERIOD   25   TIME STEP 2384

 -------------------------------------------------------------------------------
                             SWR1 OUTPUT PRINT TIMES
                        STRESS PERIOD   25   TIME STEP  2384
 --------------- --------------- --------------- --------------- ---------------
     0.37248E+06                                                                
 -------------------------------------------------------------------------------
 
 SOLVING FOR HEAD 
 INITIAL HNEW IS AN EXACT SOLUTION.

 NO OUTPUT CONTROL FOR STRESS PERIOD   25   TIME STEP 2385

 -------------------------------------------------------------------------------
                             SWR1 OUTPUT PRINT TIMES
                        STRESS PERIOD   25   TIME STEP  2385
 --------------- --------------- --------------- --------------- ---------------
     0.37260E+06                                                                
 -------------------------------------------------------------------------------
 
 SOLVING FOR HEAD 
 INITIAL HNEW IS AN EXACT SOLUTION.

 NO OUTPUT CONTROL FOR STRESS PERIOD   25   TIME STEP 2386

 -------------------------------------------------------------------------------
                             SWR1 OUTPUT PRINT TIMES
                        STRESS PERIOD   25   TIME STEP  2386
 --------------- --------------- --------------- --------------- ---------------
     0.37272E+06                                                                
 -------------------------------------------------------------------------------
 
 SOLVING FOR HEAD 
 INITIAL HNEW IS AN EXACT SOLUTION.

 NO OUTPUT CONTROL FOR STRESS PERIOD   25   TIME STEP 2387

 -------------------------------------------------------------------------------
                             SWR1 OUTPUT PRINT TIMES
                        STRESS PERIOD   25   TIME STEP  2387
 --------------- --------------- --------------- --------------- ---------------
     0.37284E+06                                                                
 -------------------------------------------------------------------------------
 
 SOLVING FOR HEAD 
 INITIAL HNEW IS AN EXACT SOLUTION.

 NO OUTPUT CONTROL FOR STRESS PERIOD   25   TIME STEP 2388

 -------------------------------------------------------------------------------
                             SWR1 OUTPUT PRINT TIMES
                        STRESS PERIOD   25   TIME STEP  2388
 --------------- --------------- --------------- --------------- ---------------
     0.37296E+06                                                                
 -------------------------------------------------------------------------------
 
 SOLVING FOR HEAD 
 INITIAL HNEW IS AN EXACT SOLUTION.

 NO OUTPUT CONTROL FOR STRESS PERIOD   25   TIME STEP 2389

 -------------------------------------------------------------------------------
                             SWR1 OUTPUT PRINT TIMES
                        STRESS PERIOD   25   TIME STEP  2389
 --------------- --------------- --------------- --------------- ---------------
     0.37308E+06                                                                
 -------------------------------------------------------------------------------
 
 SOLVING FOR HEAD 
 INITIAL HNEW IS AN EXACT SOLUTION.

 NO OUTPUT CONTROL FOR STRESS PERIOD   25   TIME STEP 2390

 -------------------------------------------------------------------------------
                             SWR1 OUTPUT PRINT TIMES
                        STRESS PERIOD   25   TIME STEP  2390
 --------------- --------------- --------------- --------------- ---------------
     0.37320E+06                                                                
 -------------------------------------------------------------------------------
 
 SOLVING FOR HEAD 
 INITIAL HNEW IS AN EXACT SOLUTION.

 NO OUTPUT CONTROL FOR STRESS PERIOD   25   TIME STEP 2391

 -------------------------------------------------------------------------------
                             SWR1 OUTPUT PRINT TIMES
                        STRESS PERIOD   25   TIME STEP  2391
 --------------- --------------- --------------- --------------- ---------------
     0.37332E+06                                                                
 -------------------------------------------------------------------------------
 
 SOLVING FOR HEAD 
 INITIAL HNEW IS AN EXACT SOLUTION.

 NO OUTPUT CONTROL FOR STRESS PERIOD   25   TIME STEP 2392

 -------------------------------------------------------------------------------
                             SWR1 OUTPUT PRINT TIMES
                        STRESS PERIOD   25   TIME STEP  2392
 --------------- --------------- --------------- --------------- ---------------
     0.37344E+06                                                                
 -------------------------------------------------------------------------------
 
 SOLVING FOR HEAD 
 INITIAL HNEW IS AN EXACT SOLUTION.

 NO OUTPUT CONTROL FOR STRESS PERIOD   25   TIME STEP 2393

 -------------------------------------------------------------------------------
                             SWR1 OUTPUT PRINT TIMES
                        STRESS PERIOD   25   TIME STEP  2393
 --------------- --------------- --------------- --------------- ---------------
     0.37356E+06                                                                
 -------------------------------------------------------------------------------
 
 SOLVING FOR HEAD 
 INITIAL HNEW IS AN EXACT SOLUTION.

 NO OUTPUT CONTROL FOR STRESS PERIOD   25   TIME STEP 2394

 -------------------------------------------------------------------------------
                             SWR1 OUTPUT PRINT TIMES
                        STRESS PERIOD   25   TIME STEP  2394
 --------------- --------------- --------------- --------------- ---------------
     0.37368E+06                                                                
 -------------------------------------------------------------------------------
 
 SOLVING FOR HEAD 
 INITIAL HNEW IS AN EXACT SOLUTION.

 NO OUTPUT CONTROL FOR STRESS PERIOD   25   TIME STEP 2395

 -------------------------------------------------------------------------------
                             SWR1 OUTPUT PRINT TIMES
                        STRESS PERIOD   25   TIME STEP  2395
 --------------- --------------- --------------- --------------- ---------------
     0.37380E+06                                                                
 -------------------------------------------------------------------------------
 
 SOLVING FOR HEAD 
 INITIAL HNEW IS AN EXACT SOLUTION.

 NO OUTPUT CONTROL FOR STRESS PERIOD   25   TIME STEP 2396

 -------------------------------------------------------------------------------
                             SWR1 OUTPUT PRINT TIMES
                        STRESS PERIOD   25   TIME STEP  2396
 --------------- --------------- --------------- --------------- ---------------
     0.37392E+06                                                                
 -------------------------------------------------------------------------------
 
 SOLVING FOR HEAD 
 INITIAL HNEW IS AN EXACT SOLUTION.

 NO OUTPUT CONTROL FOR STRESS PERIOD   25   TIME STEP 2397

 -------------------------------------------------------------------------------
                             SWR1 OUTPUT PRINT TIMES
                        STRESS PERIOD   25   TIME STEP  2397
 --------------- --------------- --------------- --------------- ---------------
     0.37404E+06                                                                
 -------------------------------------------------------------------------------
 
 SOLVING FOR HEAD 
 INITIAL HNEW IS AN EXACT SOLUTION.

 NO OUTPUT CONTROL FOR STRESS PERIOD   25   TIME STEP 2398

 -------------------------------------------------------------------------------
                             SWR1 OUTPUT PRINT TIMES
                        STRESS PERIOD   25   TIME STEP  2398
 --------------- --------------- --------------- --------------- ---------------
     0.37416E+06                                                                
 -------------------------------------------------------------------------------
 
 SOLVING FOR HEAD 
 INITIAL HNEW IS AN EXACT SOLUTION.

 NO OUTPUT CONTROL FOR STRESS PERIOD   25   TIME STEP 2399

 -------------------------------------------------------------------------------
                             SWR1 OUTPUT PRINT TIMES
                        STRESS PERIOD   25   TIME STEP  2399
 --------------- --------------- --------------- --------------- ---------------
     0.37428E+06                                                                
 -------------------------------------------------------------------------------
 
 SOLVING FOR HEAD 
 INITIAL HNEW IS AN EXACT SOLUTION.

 NO OUTPUT CONTROL FOR STRESS PERIOD   25   TIME STEP 2400

 -------------------------------------------------------------------------------
                             SWR1 OUTPUT PRINT TIMES
                        STRESS PERIOD   25   TIME STEP  2400
 --------------- --------------- --------------- --------------- ---------------
     0.37440E+06                                                                
 -------------------------------------------------------------------------------
 
 SOLVING FOR HEAD 
 INITIAL HNEW IS AN EXACT SOLUTION.

 NO OUTPUT CONTROL FOR STRESS PERIOD   25   TIME STEP 2401

 -------------------------------------------------------------------------------
                             SWR1 OUTPUT PRINT TIMES
                        STRESS PERIOD   25   TIME STEP  2401
 --------------- --------------- --------------- --------------- ---------------
     0.37452E+06                                                                
 -------------------------------------------------------------------------------
 
 SOLVING FOR HEAD 
 INITIAL HNEW IS AN EXACT SOLUTION.

 NO OUTPUT CONTROL FOR STRESS PERIOD   25   TIME STEP 2402

 -------------------------------------------------------------------------------
                             SWR1 OUTPUT PRINT TIMES
                        STRESS PERIOD   25   TIME STEP  2402
 --------------- --------------- --------------- --------------- ---------------
     0.37464E+06                                                                
 -------------------------------------------------------------------------------
 
 SOLVING FOR HEAD 
 INITIAL HNEW IS AN EXACT SOLUTION.

 NO OUTPUT CONTROL FOR STRESS PERIOD   25   TIME STEP 2403

 -------------------------------------------------------------------------------
                             SWR1 OUTPUT PRINT TIMES
                        STRESS PERIOD   25   TIME STEP  2403
 --------------- --------------- --------------- --------------- ---------------
     0.37476E+06                                                                
 -------------------------------------------------------------------------------
 
 SOLVING FOR HEAD 
 INITIAL HNEW IS AN EXACT SOLUTION.

 NO OUTPUT CONTROL FOR STRESS PERIOD   25   TIME STEP 2404

 -------------------------------------------------------------------------------
                             SWR1 OUTPUT PRINT TIMES
                        STRESS PERIOD   25   TIME STEP  2404
 --------------- --------------- --------------- --------------- ---------------
     0.37488E+06                                                                
 -------------------------------------------------------------------------------
 
 SOLVING FOR HEAD 
 INITIAL HNEW IS AN EXACT SOLUTION.

 NO OUTPUT CONTROL FOR STRESS PERIOD   25   TIME STEP 2405

 -------------------------------------------------------------------------------
                             SWR1 OUTPUT PRINT TIMES
                        STRESS PERIOD   25   TIME STEP  2405
 --------------- --------------- --------------- --------------- ---------------
     0.37500E+06                                                                
 -------------------------------------------------------------------------------
 
 SOLVING FOR HEAD 
 INITIAL HNEW IS AN EXACT SOLUTION.

 NO OUTPUT CONTROL FOR STRESS PERIOD   25   TIME STEP 2406

 -------------------------------------------------------------------------------
                             SWR1 OUTPUT PRINT TIMES
                        STRESS PERIOD   25   TIME STEP  2406
 --------------- --------------- --------------- --------------- ---------------
     0.37512E+06                                                                
 -------------------------------------------------------------------------------
 
 SOLVING FOR HEAD 
 INITIAL HNEW IS AN EXACT SOLUTION.

 NO OUTPUT CONTROL FOR STRESS PERIOD   25   TIME STEP 2407

 -------------------------------------------------------------------------------
                             SWR1 OUTPUT PRINT TIMES
                        STRESS PERIOD   25   TIME STEP  2407
 --------------- --------------- --------------- --------------- ---------------
     0.37524E+06                                                                
 -------------------------------------------------------------------------------
 
 SOLVING FOR HEAD 
 INITIAL HNEW IS AN EXACT SOLUTION.

 NO OUTPUT CONTROL FOR STRESS PERIOD   25   TIME STEP 2408

 -------------------------------------------------------------------------------
                             SWR1 OUTPUT PRINT TIMES
                        STRESS PERIOD   25   TIME STEP  2408
 --------------- --------------- --------------- --------------- ---------------
     0.37536E+06                                                                
 -------------------------------------------------------------------------------
 
 SOLVING FOR HEAD 
 INITIAL HNEW IS AN EXACT SOLUTION.

 NO OUTPUT CONTROL FOR STRESS PERIOD   25   TIME STEP 2409

 -------------------------------------------------------------------------------
                             SWR1 OUTPUT PRINT TIMES
                        STRESS PERIOD   25   TIME STEP  2409
 --------------- --------------- --------------- --------------- ---------------
     0.37548E+06                                                                
 -------------------------------------------------------------------------------
 
 SOLVING FOR HEAD 
 INITIAL HNEW IS AN EXACT SOLUTION.

 NO OUTPUT CONTROL FOR STRESS PERIOD   25   TIME STEP 2410

 -------------------------------------------------------------------------------
                             SWR1 OUTPUT PRINT TIMES
                        STRESS PERIOD   25   TIME STEP  2410
 --------------- --------------- --------------- --------------- ---------------
     0.37560E+06                                                                
 -------------------------------------------------------------------------------
 
 SOLVING FOR HEAD 
 INITIAL HNEW IS AN EXACT SOLUTION.

 NO OUTPUT CONTROL FOR STRESS PERIOD   25   TIME STEP 2411

 -------------------------------------------------------------------------------
                             SWR1 OUTPUT PRINT TIMES
                        STRESS PERIOD   25   TIME STEP  2411
 --------------- --------------- --------------- --------------- ---------------
     0.37572E+06                                                                
 -------------------------------------------------------------------------------
 
 SOLVING FOR HEAD 
 INITIAL HNEW IS AN EXACT SOLUTION.

 NO OUTPUT CONTROL FOR STRESS PERIOD   25   TIME STEP 2412

 -------------------------------------------------------------------------------
                             SWR1 OUTPUT PRINT TIMES
                        STRESS PERIOD   25   TIME STEP  2412
 --------------- --------------- --------------- --------------- ---------------
     0.37584E+06                                                                
 -------------------------------------------------------------------------------
 
 SOLVING FOR HEAD 
 INITIAL HNEW IS AN EXACT SOLUTION.

 NO OUTPUT CONTROL FOR STRESS PERIOD   25   TIME STEP 2413

 -------------------------------------------------------------------------------
                             SWR1 OUTPUT PRINT TIMES
                        STRESS PERIOD   25   TIME STEP  2413
 --------------- --------------- --------------- --------------- ---------------
     0.37596E+06                                                                
 -------------------------------------------------------------------------------
 
 SOLVING FOR HEAD 
 INITIAL HNEW IS AN EXACT SOLUTION.

 NO OUTPUT CONTROL FOR STRESS PERIOD   25   TIME STEP 2414

 -------------------------------------------------------------------------------
                             SWR1 OUTPUT PRINT TIMES
                        STRESS PERIOD   25   TIME STEP  2414
 --------------- --------------- --------------- --------------- ---------------
     0.37608E+06                                                                
 -------------------------------------------------------------------------------
 
 SOLVING FOR HEAD 
 INITIAL HNEW IS AN EXACT SOLUTION.

 NO OUTPUT CONTROL FOR STRESS PERIOD   25   TIME STEP 2415

 -------------------------------------------------------------------------------
                             SWR1 OUTPUT PRINT TIMES
                        STRESS PERIOD   25   TIME STEP  2415
 --------------- --------------- --------------- --------------- ---------------
     0.37620E+06                                                                
 -------------------------------------------------------------------------------
 
 SOLVING FOR HEAD 
 INITIAL HNEW IS AN EXACT SOLUTION.

 NO OUTPUT CONTROL FOR STRESS PERIOD   25   TIME STEP 2416

 -------------------------------------------------------------------------------
                             SWR1 OUTPUT PRINT TIMES
                        STRESS PERIOD   25   TIME STEP  2416
 --------------- --------------- --------------- --------------- ---------------
     0.37632E+06                                                                
 -------------------------------------------------------------------------------
 
 SOLVING FOR HEAD 
 INITIAL HNEW IS AN EXACT SOLUTION.

 NO OUTPUT CONTROL FOR STRESS PERIOD   25   TIME STEP 2417

 -------------------------------------------------------------------------------
                             SWR1 OUTPUT PRINT TIMES
                        STRESS PERIOD   25   TIME STEP  2417
 --------------- --------------- --------------- --------------- ---------------
     0.37644E+06                                                                
 -------------------------------------------------------------------------------
 
 SOLVING FOR HEAD 
 INITIAL HNEW IS AN EXACT SOLUTION.

 NO OUTPUT CONTROL FOR STRESS PERIOD   25   TIME STEP 2418

 -------------------------------------------------------------------------------
                             SWR1 OUTPUT PRINT TIMES
                        STRESS PERIOD   25   TIME STEP  2418
 --------------- --------------- --------------- --------------- ---------------
     0.37656E+06                                                                
 -------------------------------------------------------------------------------
 
 SOLVING FOR HEAD 
 INITIAL HNEW IS AN EXACT SOLUTION.

 NO OUTPUT CONTROL FOR STRESS PERIOD   25   TIME STEP 2419

 -------------------------------------------------------------------------------
                             SWR1 OUTPUT PRINT TIMES
                        STRESS PERIOD   25   TIME STEP  2419
 --------------- --------------- --------------- --------------- ---------------
     0.37668E+06                                                                
 -------------------------------------------------------------------------------
 
 SOLVING FOR HEAD 
 INITIAL HNEW IS AN EXACT SOLUTION.

 NO OUTPUT CONTROL FOR STRESS PERIOD   25   TIME STEP 2420

 -------------------------------------------------------------------------------
                             SWR1 OUTPUT PRINT TIMES
                        STRESS PERIOD   25   TIME STEP  2420
 --------------- --------------- --------------- --------------- ---------------
     0.37680E+06                                                                
 -------------------------------------------------------------------------------
 
 SOLVING FOR HEAD 
 INITIAL HNEW IS AN EXACT SOLUTION.

 NO OUTPUT CONTROL FOR STRESS PERIOD   25   TIME STEP 2421

 -------------------------------------------------------------------------------
                             SWR1 OUTPUT PRINT TIMES
                        STRESS PERIOD   25   TIME STEP  2421
 --------------- --------------- --------------- --------------- ---------------
     0.37692E+06                                                                
 -------------------------------------------------------------------------------
 
 SOLVING FOR HEAD 
 INITIAL HNEW IS AN EXACT SOLUTION.

 NO OUTPUT CONTROL FOR STRESS PERIOD   25   TIME STEP 2422

 -------------------------------------------------------------------------------
                             SWR1 OUTPUT PRINT TIMES
                        STRESS PERIOD   25   TIME STEP  2422
 --------------- --------------- --------------- --------------- ---------------
     0.37704E+06                                                                
 -------------------------------------------------------------------------------
 
 SOLVING FOR HEAD 
 INITIAL HNEW IS AN EXACT SOLUTION.

 NO OUTPUT CONTROL FOR STRESS PERIOD   25   TIME STEP 2423

 -------------------------------------------------------------------------------
                             SWR1 OUTPUT PRINT TIMES
                        STRESS PERIOD   25   TIME STEP  2423
 --------------- --------------- --------------- --------------- ---------------
     0.37716E+06                                                                
 -------------------------------------------------------------------------------
 
 SOLVING FOR HEAD 
 INITIAL HNEW IS AN EXACT SOLUTION.

 NO OUTPUT CONTROL FOR STRESS PERIOD   25   TIME STEP 2424

 -------------------------------------------------------------------------------
                             SWR1 OUTPUT PRINT TIMES
                        STRESS PERIOD   25   TIME STEP  2424
 --------------- --------------- --------------- --------------- ---------------
     0.37728E+06                                                                
 -------------------------------------------------------------------------------
 
 SOLVING FOR HEAD 
 INITIAL HNEW IS AN EXACT SOLUTION.

 NO OUTPUT CONTROL FOR STRESS PERIOD   25   TIME STEP 2425

 -------------------------------------------------------------------------------
                             SWR1 OUTPUT PRINT TIMES
                        STRESS PERIOD   25   TIME STEP  2425
 --------------- --------------- --------------- --------------- ---------------
     0.37740E+06                                                                
 -------------------------------------------------------------------------------
 
 SOLVING FOR HEAD 
 INITIAL HNEW IS AN EXACT SOLUTION.

 NO OUTPUT CONTROL FOR STRESS PERIOD   25   TIME STEP 2426

 -------------------------------------------------------------------------------
                             SWR1 OUTPUT PRINT TIMES
                        STRESS PERIOD   25   TIME STEP  2426
 --------------- --------------- --------------- --------------- ---------------
     0.37752E+06                                                                
 -------------------------------------------------------------------------------
 
 SOLVING FOR HEAD 
 INITIAL HNEW IS AN EXACT SOLUTION.

 NO OUTPUT CONTROL FOR STRESS PERIOD   25   TIME STEP 2427

 -------------------------------------------------------------------------------
                             SWR1 OUTPUT PRINT TIMES
                        STRESS PERIOD   25   TIME STEP  2427
 --------------- --------------- --------------- --------------- ---------------
     0.37764E+06                                                                
 -------------------------------------------------------------------------------
 
 SOLVING FOR HEAD 
 INITIAL HNEW IS AN EXACT SOLUTION.

 NO OUTPUT CONTROL FOR STRESS PERIOD   25   TIME STEP 2428

 -------------------------------------------------------------------------------
                             SWR1 OUTPUT PRINT TIMES
                        STRESS PERIOD   25   TIME STEP  2428
 --------------- --------------- --------------- --------------- ---------------
     0.37776E+06                                                                
 -------------------------------------------------------------------------------
 
 SOLVING FOR HEAD 
 INITIAL HNEW IS AN EXACT SOLUTION.

 NO OUTPUT CONTROL FOR STRESS PERIOD   25   TIME STEP 2429

 -------------------------------------------------------------------------------
                             SWR1 OUTPUT PRINT TIMES
                        STRESS PERIOD   25   TIME STEP  2429
 --------------- --------------- --------------- --------------- ---------------
     0.37788E+06                                                                
 -------------------------------------------------------------------------------
 
 SOLVING FOR HEAD 
 INITIAL HNEW IS AN EXACT SOLUTION.

 NO OUTPUT CONTROL FOR STRESS PERIOD   25   TIME STEP 2430

 -------------------------------------------------------------------------------
                             SWR1 OUTPUT PRINT TIMES
                        STRESS PERIOD   25   TIME STEP  2430
 --------------- --------------- --------------- --------------- ---------------
     0.37800E+06                                                                
 -------------------------------------------------------------------------------
 
 SOLVING FOR HEAD 
 INITIAL HNEW IS AN EXACT SOLUTION.

 NO OUTPUT CONTROL FOR STRESS PERIOD   25   TIME STEP 2431

 -------------------------------------------------------------------------------
                             SWR1 OUTPUT PRINT TIMES
                        STRESS PERIOD   25   TIME STEP  2431
 --------------- --------------- --------------- --------------- ---------------
     0.37812E+06                                                                
 -------------------------------------------------------------------------------
 
 SOLVING FOR HEAD 
 INITIAL HNEW IS AN EXACT SOLUTION.

 NO OUTPUT CONTROL FOR STRESS PERIOD   25   TIME STEP 2432

 -------------------------------------------------------------------------------
                             SWR1 OUTPUT PRINT TIMES
                        STRESS PERIOD   25   TIME STEP  2432
 --------------- --------------- --------------- --------------- ---------------
     0.37824E+06                                                                
 -------------------------------------------------------------------------------
 
 SOLVING FOR HEAD 
 INITIAL HNEW IS AN EXACT SOLUTION.

 NO OUTPUT CONTROL FOR STRESS PERIOD   25   TIME STEP 2433

 -------------------------------------------------------------------------------
                             SWR1 OUTPUT PRINT TIMES
                        STRESS PERIOD   25   TIME STEP  2433
 --------------- --------------- --------------- --------------- ---------------
     0.37836E+06                                                                
 -------------------------------------------------------------------------------
 
 SOLVING FOR HEAD 
 INITIAL HNEW IS AN EXACT SOLUTION.

 NO OUTPUT CONTROL FOR STRESS PERIOD   25   TIME STEP 2434

 -------------------------------------------------------------------------------
                             SWR1 OUTPUT PRINT TIMES
                        STRESS PERIOD   25   TIME STEP  2434
 --------------- --------------- --------------- --------------- ---------------
     0.37848E+06                                                                
 -------------------------------------------------------------------------------
 
 SOLVING FOR HEAD 
 INITIAL HNEW IS AN EXACT SOLUTION.

 NO OUTPUT CONTROL FOR STRESS PERIOD   25   TIME STEP 2435

 -------------------------------------------------------------------------------
                             SWR1 OUTPUT PRINT TIMES
                        STRESS PERIOD   25   TIME STEP  2435
 --------------- --------------- --------------- --------------- ---------------
     0.37860E+06                                                                
 -------------------------------------------------------------------------------
 
 SOLVING FOR HEAD 
 INITIAL HNEW IS AN EXACT SOLUTION.

 NO OUTPUT CONTROL FOR STRESS PERIOD   25   TIME STEP 2436

 -------------------------------------------------------------------------------
                             SWR1 OUTPUT PRINT TIMES
                        STRESS PERIOD   25   TIME STEP  2436
 --------------- --------------- --------------- --------------- ---------------
     0.37872E+06                                                                
 -------------------------------------------------------------------------------
 
 SOLVING FOR HEAD 
 INITIAL HNEW IS AN EXACT SOLUTION.

 NO OUTPUT CONTROL FOR STRESS PERIOD   25   TIME STEP 2437

 -------------------------------------------------------------------------------
                             SWR1 OUTPUT PRINT TIMES
                        STRESS PERIOD   25   TIME STEP  2437
 --------------- --------------- --------------- --------------- ---------------
     0.37884E+06                                                                
 -------------------------------------------------------------------------------
 
 SOLVING FOR HEAD 
 INITIAL HNEW IS AN EXACT SOLUTION.

 NO OUTPUT CONTROL FOR STRESS PERIOD   25   TIME STEP 2438

 -------------------------------------------------------------------------------
                             SWR1 OUTPUT PRINT TIMES
                        STRESS PERIOD   25   TIME STEP  2438
 --------------- --------------- --------------- --------------- ---------------
     0.37896E+06                                                                
 -------------------------------------------------------------------------------
 
 SOLVING FOR HEAD 
 INITIAL HNEW IS AN EXACT SOLUTION.

 NO OUTPUT CONTROL FOR STRESS PERIOD   25   TIME STEP 2439

 -------------------------------------------------------------------------------
                             SWR1 OUTPUT PRINT TIMES
                        STRESS PERIOD   25   TIME STEP  2439
 --------------- --------------- --------------- --------------- ---------------
     0.37908E+06                                                                
 -------------------------------------------------------------------------------
 
 SOLVING FOR HEAD 
 INITIAL HNEW IS AN EXACT SOLUTION.

 NO OUTPUT CONTROL FOR STRESS PERIOD   25   TIME STEP 2440

 -------------------------------------------------------------------------------
                             SWR1 OUTPUT PRINT TIMES
                        STRESS PERIOD   25   TIME STEP  2440
 --------------- --------------- --------------- --------------- ---------------
     0.37920E+06                                                                
 -------------------------------------------------------------------------------
 
 SOLVING FOR HEAD 
 INITIAL HNEW IS AN EXACT SOLUTION.

 NO OUTPUT CONTROL FOR STRESS PERIOD   25   TIME STEP 2441

 -------------------------------------------------------------------------------
                             SWR1 OUTPUT PRINT TIMES
                        STRESS PERIOD   25   TIME STEP  2441
 --------------- --------------- --------------- --------------- ---------------
     0.37932E+06                                                                
 -------------------------------------------------------------------------------
 
 SOLVING FOR HEAD 
 INITIAL HNEW IS AN EXACT SOLUTION.

 NO OUTPUT CONTROL FOR STRESS PERIOD   25   TIME STEP 2442

 -------------------------------------------------------------------------------
                             SWR1 OUTPUT PRINT TIMES
                        STRESS PERIOD   25   TIME STEP  2442
 --------------- --------------- --------------- --------------- ---------------
     0.37944E+06                                                                
 -------------------------------------------------------------------------------
 
 SOLVING FOR HEAD 
 INITIAL HNEW IS AN EXACT SOLUTION.

 NO OUTPUT CONTROL FOR STRESS PERIOD   25   TIME STEP 2443

 -------------------------------------------------------------------------------
                             SWR1 OUTPUT PRINT TIMES
                        STRESS PERIOD   25   TIME STEP  2443
 --------------- --------------- --------------- --------------- ---------------
     0.37956E+06                                                                
 -------------------------------------------------------------------------------
 
 SOLVING FOR HEAD 
 INITIAL HNEW IS AN EXACT SOLUTION.

 NO OUTPUT CONTROL FOR STRESS PERIOD   25   TIME STEP 2444

 -------------------------------------------------------------------------------
                             SWR1 OUTPUT PRINT TIMES
                        STRESS PERIOD   25   TIME STEP  2444
 --------------- --------------- --------------- --------------- ---------------
     0.37968E+06                                                                
 -------------------------------------------------------------------------------
 
 SOLVING FOR HEAD 
 INITIAL HNEW IS AN EXACT SOLUTION.

 NO OUTPUT CONTROL FOR STRESS PERIOD   25   TIME STEP 2445

 -------------------------------------------------------------------------------
                             SWR1 OUTPUT PRINT TIMES
                        STRESS PERIOD   25   TIME STEP  2445
 --------------- --------------- --------------- --------------- ---------------
     0.37980E+06                                                                
 -------------------------------------------------------------------------------
 
 SOLVING FOR HEAD 
 INITIAL HNEW IS AN EXACT SOLUTION.

 NO OUTPUT CONTROL FOR STRESS PERIOD   25   TIME STEP 2446

 -------------------------------------------------------------------------------
                             SWR1 OUTPUT PRINT TIMES
                        STRESS PERIOD   25   TIME STEP  2446
 --------------- --------------- --------------- --------------- ---------------
     0.37992E+06                                                                
 -------------------------------------------------------------------------------
 
 SOLVING FOR HEAD 
 INITIAL HNEW IS AN EXACT SOLUTION.

 NO OUTPUT CONTROL FOR STRESS PERIOD   25   TIME STEP 2447

 -------------------------------------------------------------------------------
                             SWR1 OUTPUT PRINT TIMES
                        STRESS PERIOD   25   TIME STEP  2447
 --------------- --------------- --------------- --------------- ---------------
     0.38004E+06                                                                
 -------------------------------------------------------------------------------
 
 SOLVING FOR HEAD 
 INITIAL HNEW IS AN EXACT SOLUTION.

 NO OUTPUT CONTROL FOR STRESS PERIOD   25   TIME STEP 2448

 -------------------------------------------------------------------------------
                             SWR1 OUTPUT PRINT TIMES
                        STRESS PERIOD   25   TIME STEP  2448
 --------------- --------------- --------------- --------------- ---------------
     0.38016E+06                                                                
 -------------------------------------------------------------------------------
 
 SOLVING FOR HEAD 
 INITIAL HNEW IS AN EXACT SOLUTION.

 NO OUTPUT CONTROL FOR STRESS PERIOD   25   TIME STEP 2449

 -------------------------------------------------------------------------------
                             SWR1 OUTPUT PRINT TIMES
                        STRESS PERIOD   25   TIME STEP  2449
 --------------- --------------- --------------- --------------- ---------------
     0.38028E+06                                                                
 -------------------------------------------------------------------------------
 
 SOLVING FOR HEAD 
 INITIAL HNEW IS AN EXACT SOLUTION.

 NO OUTPUT CONTROL FOR STRESS PERIOD   25   TIME STEP 2450

 -------------------------------------------------------------------------------
                             SWR1 OUTPUT PRINT TIMES
                        STRESS PERIOD   25   TIME STEP  2450
 --------------- --------------- --------------- --------------- ---------------
     0.38040E+06                                                                
 -------------------------------------------------------------------------------
 
 SOLVING FOR HEAD 
 INITIAL HNEW IS AN EXACT SOLUTION.

 NO OUTPUT CONTROL FOR STRESS PERIOD   25   TIME STEP 2451

 -------------------------------------------------------------------------------
                             SWR1 OUTPUT PRINT TIMES
                        STRESS PERIOD   25   TIME STEP  2451
 --------------- --------------- --------------- --------------- ---------------
     0.38052E+06                                                                
 -------------------------------------------------------------------------------
 
 SOLVING FOR HEAD 
 INITIAL HNEW IS AN EXACT SOLUTION.

 NO OUTPUT CONTROL FOR STRESS PERIOD   25   TIME STEP 2452

 -------------------------------------------------------------------------------
                             SWR1 OUTPUT PRINT TIMES
                        STRESS PERIOD   25   TIME STEP  2452
 --------------- --------------- --------------- --------------- ---------------
     0.38064E+06                                                                
 -------------------------------------------------------------------------------
 
 SOLVING FOR HEAD 
 INITIAL HNEW IS AN EXACT SOLUTION.

 NO OUTPUT CONTROL FOR STRESS PERIOD   25   TIME STEP 2453

 -------------------------------------------------------------------------------
                             SWR1 OUTPUT PRINT TIMES
                        STRESS PERIOD   25   TIME STEP  2453
 --------------- --------------- --------------- --------------- ---------------
     0.38076E+06                                                                
 -------------------------------------------------------------------------------
 
 SOLVING FOR HEAD 
 INITIAL HNEW IS AN EXACT SOLUTION.

 NO OUTPUT CONTROL FOR STRESS PERIOD   25   TIME STEP 2454

 -------------------------------------------------------------------------------
                             SWR1 OUTPUT PRINT TIMES
                        STRESS PERIOD   25   TIME STEP  2454
 --------------- --------------- --------------- --------------- ---------------
     0.38088E+06                                                                
 -------------------------------------------------------------------------------
 
 SOLVING FOR HEAD 
 INITIAL HNEW IS AN EXACT SOLUTION.

 NO OUTPUT CONTROL FOR STRESS PERIOD   25   TIME STEP 2455

 -------------------------------------------------------------------------------
                             SWR1 OUTPUT PRINT TIMES
                        STRESS PERIOD   25   TIME STEP  2455
 --------------- --------------- --------------- --------------- ---------------
     0.38100E+06                                                                
 -------------------------------------------------------------------------------
 
 SOLVING FOR HEAD 
 INITIAL HNEW IS AN EXACT SOLUTION.

 NO OUTPUT CONTROL FOR STRESS PERIOD   25   TIME STEP 2456

 -------------------------------------------------------------------------------
                             SWR1 OUTPUT PRINT TIMES
                        STRESS PERIOD   25   TIME STEP  2456
 --------------- --------------- --------------- --------------- ---------------
     0.38112E+06                                                                
 -------------------------------------------------------------------------------
 
 SOLVING FOR HEAD 
 INITIAL HNEW IS AN EXACT SOLUTION.

 NO OUTPUT CONTROL FOR STRESS PERIOD   25   TIME STEP 2457

 -------------------------------------------------------------------------------
                             SWR1 OUTPUT PRINT TIMES
                        STRESS PERIOD   25   TIME STEP  2457
 --------------- --------------- --------------- --------------- ---------------
     0.38124E+06                                                                
 -------------------------------------------------------------------------------
 
 SOLVING FOR HEAD 
 INITIAL HNEW IS AN EXACT SOLUTION.

 NO OUTPUT CONTROL FOR STRESS PERIOD   25   TIME STEP 2458

 -------------------------------------------------------------------------------
                             SWR1 OUTPUT PRINT TIMES
                        STRESS PERIOD   25   TIME STEP  2458
 --------------- --------------- --------------- --------------- ---------------
     0.38136E+06                                                                
 -------------------------------------------------------------------------------
 
 SOLVING FOR HEAD 
 INITIAL HNEW IS AN EXACT SOLUTION.

 NO OUTPUT CONTROL FOR STRESS PERIOD   25   TIME STEP 2459

 -------------------------------------------------------------------------------
                             SWR1 OUTPUT PRINT TIMES
                        STRESS PERIOD   25   TIME STEP  2459
 --------------- --------------- --------------- --------------- ---------------
     0.38148E+06                                                                
 -------------------------------------------------------------------------------
 
 SOLVING FOR HEAD 
 INITIAL HNEW IS AN EXACT SOLUTION.

 NO OUTPUT CONTROL FOR STRESS PERIOD   25   TIME STEP 2460

 -------------------------------------------------------------------------------
                             SWR1 OUTPUT PRINT TIMES
                        STRESS PERIOD   25   TIME STEP  2460
 --------------- --------------- --------------- --------------- ---------------
     0.38160E+06                                                                
 -------------------------------------------------------------------------------
 
 SOLVING FOR HEAD 
 INITIAL HNEW IS AN EXACT SOLUTION.

 NO OUTPUT CONTROL FOR STRESS PERIOD   25   TIME STEP 2461

 -------------------------------------------------------------------------------
                             SWR1 OUTPUT PRINT TIMES
                        STRESS PERIOD   25   TIME STEP  2461
 --------------- --------------- --------------- --------------- ---------------
     0.38172E+06                                                                
 -------------------------------------------------------------------------------
 
 SOLVING FOR HEAD 
 INITIAL HNEW IS AN EXACT SOLUTION.

 NO OUTPUT CONTROL FOR STRESS PERIOD   25   TIME STEP 2462

 -------------------------------------------------------------------------------
                             SWR1 OUTPUT PRINT TIMES
                        STRESS PERIOD   25   TIME STEP  2462
 --------------- --------------- --------------- --------------- ---------------
     0.38184E+06                                                                
 -------------------------------------------------------------------------------
 
 SOLVING FOR HEAD 
 INITIAL HNEW IS AN EXACT SOLUTION.

 NO OUTPUT CONTROL FOR STRESS PERIOD   25   TIME STEP 2463

 -------------------------------------------------------------------------------
                             SWR1 OUTPUT PRINT TIMES
                        STRESS PERIOD   25   TIME STEP  2463
 --------------- --------------- --------------- --------------- ---------------
     0.38196E+06                                                                
 -------------------------------------------------------------------------------
 
 SOLVING FOR HEAD 
 INITIAL HNEW IS AN EXACT SOLUTION.

 NO OUTPUT CONTROL FOR STRESS PERIOD   25   TIME STEP 2464

 -------------------------------------------------------------------------------
                             SWR1 OUTPUT PRINT TIMES
                        STRESS PERIOD   25   TIME STEP  2464
 --------------- --------------- --------------- --------------- ---------------
     0.38208E+06                                                                
 -------------------------------------------------------------------------------
 
 SOLVING FOR HEAD 
 INITIAL HNEW IS AN EXACT SOLUTION.

 NO OUTPUT CONTROL FOR STRESS PERIOD   25   TIME STEP 2465

 -------------------------------------------------------------------------------
                             SWR1 OUTPUT PRINT TIMES
                        STRESS PERIOD   25   TIME STEP  2465
 --------------- --------------- --------------- --------------- ---------------
     0.38220E+06                                                                
 -------------------------------------------------------------------------------
 
 SOLVING FOR HEAD 
 INITIAL HNEW IS AN EXACT SOLUTION.

 NO OUTPUT CONTROL FOR STRESS PERIOD   25   TIME STEP 2466

 -------------------------------------------------------------------------------
                             SWR1 OUTPUT PRINT TIMES
                        STRESS PERIOD   25   TIME STEP  2466
 --------------- --------------- --------------- --------------- ---------------
     0.38232E+06                                                                
 -------------------------------------------------------------------------------
 
 SOLVING FOR HEAD 
 INITIAL HNEW IS AN EXACT SOLUTION.

 NO OUTPUT CONTROL FOR STRESS PERIOD   25   TIME STEP 2467

 -------------------------------------------------------------------------------
                             SWR1 OUTPUT PRINT TIMES
                        STRESS PERIOD   25   TIME STEP  2467
 --------------- --------------- --------------- --------------- ---------------
     0.38244E+06                                                                
 -------------------------------------------------------------------------------
 
 SOLVING FOR HEAD 
 INITIAL HNEW IS AN EXACT SOLUTION.

 NO OUTPUT CONTROL FOR STRESS PERIOD   25   TIME STEP 2468

 -------------------------------------------------------------------------------
                             SWR1 OUTPUT PRINT TIMES
                        STRESS PERIOD   25   TIME STEP  2468
 --------------- --------------- --------------- --------------- ---------------
     0.38256E+06                                                                
 -------------------------------------------------------------------------------
 
 SOLVING FOR HEAD 
 INITIAL HNEW IS AN EXACT SOLUTION.

 NO OUTPUT CONTROL FOR STRESS PERIOD   25   TIME STEP 2469

 -------------------------------------------------------------------------------
                             SWR1 OUTPUT PRINT TIMES
                        STRESS PERIOD   25   TIME STEP  2469
 --------------- --------------- --------------- --------------- ---------------
     0.38268E+06                                                                
 -------------------------------------------------------------------------------
 
 SOLVING FOR HEAD 
 INITIAL HNEW IS AN EXACT SOLUTION.

 NO OUTPUT CONTROL FOR STRESS PERIOD   25   TIME STEP 2470

 -------------------------------------------------------------------------------
                             SWR1 OUTPUT PRINT TIMES
                        STRESS PERIOD   25   TIME STEP  2470
 --------------- --------------- --------------- --------------- ---------------
     0.38280E+06                                                                
 -------------------------------------------------------------------------------
 
 SOLVING FOR HEAD 
 INITIAL HNEW IS AN EXACT SOLUTION.

 NO OUTPUT CONTROL FOR STRESS PERIOD   25   TIME STEP 2471

 -------------------------------------------------------------------------------
                             SWR1 OUTPUT PRINT TIMES
                        STRESS PERIOD   25   TIME STEP  2471
 --------------- --------------- --------------- --------------- ---------------
     0.38292E+06                                                                
 -------------------------------------------------------------------------------
 
 SOLVING FOR HEAD 
 INITIAL HNEW IS AN EXACT SOLUTION.

 NO OUTPUT CONTROL FOR STRESS PERIOD   25   TIME STEP 2472

 -------------------------------------------------------------------------------
                             SWR1 OUTPUT PRINT TIMES
                        STRESS PERIOD   25   TIME STEP  2472
 --------------- --------------- --------------- --------------- ---------------
     0.38304E+06                                                                
 -------------------------------------------------------------------------------
 
 SOLVING FOR HEAD 
 INITIAL HNEW IS AN EXACT SOLUTION.

 NO OUTPUT CONTROL FOR STRESS PERIOD   25   TIME STEP 2473

 -------------------------------------------------------------------------------
                             SWR1 OUTPUT PRINT TIMES
                        STRESS PERIOD   25   TIME STEP  2473
 --------------- --------------- --------------- --------------- ---------------
     0.38316E+06                                                                
 -------------------------------------------------------------------------------
 
 SOLVING FOR HEAD 
 INITIAL HNEW IS AN EXACT SOLUTION.

 NO OUTPUT CONTROL FOR STRESS PERIOD   25   TIME STEP 2474

 -------------------------------------------------------------------------------
                             SWR1 OUTPUT PRINT TIMES
                        STRESS PERIOD   25   TIME STEP  2474
 --------------- --------------- --------------- --------------- ---------------
     0.38328E+06                                                                
 -------------------------------------------------------------------------------
 
 SOLVING FOR HEAD 
 INITIAL HNEW IS AN EXACT SOLUTION.

 NO OUTPUT CONTROL FOR STRESS PERIOD   25   TIME STEP 2475

 -------------------------------------------------------------------------------
                             SWR1 OUTPUT PRINT TIMES
                        STRESS PERIOD   25   TIME STEP  2475
 --------------- --------------- --------------- --------------- ---------------
     0.38340E+06                                                                
 -------------------------------------------------------------------------------
 
 SOLVING FOR HEAD 
 INITIAL HNEW IS AN EXACT SOLUTION.

 NO OUTPUT CONTROL FOR STRESS PERIOD   25   TIME STEP 2476

 -------------------------------------------------------------------------------
                             SWR1 OUTPUT PRINT TIMES
                        STRESS PERIOD   25   TIME STEP  2476
 --------------- --------------- --------------- --------------- ---------------
     0.38352E+06                                                                
 -------------------------------------------------------------------------------
 
 SOLVING FOR HEAD 
 INITIAL HNEW IS AN EXACT SOLUTION.

 NO OUTPUT CONTROL FOR STRESS PERIOD   25   TIME STEP 2477

 -------------------------------------------------------------------------------
                             SWR1 OUTPUT PRINT TIMES
                        STRESS PERIOD   25   TIME STEP  2477
 --------------- --------------- --------------- --------------- ---------------
     0.38364E+06                                                                
 -------------------------------------------------------------------------------
 
 SOLVING FOR HEAD 
 INITIAL HNEW IS AN EXACT SOLUTION.

 NO OUTPUT CONTROL FOR STRESS PERIOD   25   TIME STEP 2478

 -------------------------------------------------------------------------------
                             SWR1 OUTPUT PRINT TIMES
                        STRESS PERIOD   25   TIME STEP  2478
 --------------- --------------- --------------- --------------- ---------------
     0.38376E+06                                                                
 -------------------------------------------------------------------------------
 
 SOLVING FOR HEAD 
 INITIAL HNEW IS AN EXACT SOLUTION.

 NO OUTPUT CONTROL FOR STRESS PERIOD   25   TIME STEP 2479

 -------------------------------------------------------------------------------
                             SWR1 OUTPUT PRINT TIMES
                        STRESS PERIOD   25   TIME STEP  2479
 --------------- --------------- --------------- --------------- ---------------
     0.38388E+06                                                                
 -------------------------------------------------------------------------------
 
 SOLVING FOR HEAD 
 INITIAL HNEW IS AN EXACT SOLUTION.

 NO OUTPUT CONTROL FOR STRESS PERIOD   25   TIME STEP 2480

 -------------------------------------------------------------------------------
                             SWR1 OUTPUT PRINT TIMES
                        STRESS PERIOD   25   TIME STEP  2480
 --------------- --------------- --------------- --------------- ---------------
     0.38400E+06                                                                
 -------------------------------------------------------------------------------
 
 SOLVING FOR HEAD 
 INITIAL HNEW IS AN EXACT SOLUTION.

 NO OUTPUT CONTROL FOR STRESS PERIOD   25   TIME STEP 2481

 -------------------------------------------------------------------------------
                             SWR1 OUTPUT PRINT TIMES
                        STRESS PERIOD   25   TIME STEP  2481
 --------------- --------------- --------------- --------------- ---------------
     0.38412E+06                                                                
 -------------------------------------------------------------------------------
 
 SOLVING FOR HEAD 
 INITIAL HNEW IS AN EXACT SOLUTION.

 NO OUTPUT CONTROL FOR STRESS PERIOD   25   TIME STEP 2482

 -------------------------------------------------------------------------------
                             SWR1 OUTPUT PRINT TIMES
                        STRESS PERIOD   25   TIME STEP  2482
 --------------- --------------- --------------- --------------- ---------------
     0.38424E+06                                                                
 -------------------------------------------------------------------------------
 
 SOLVING FOR HEAD 
 INITIAL HNEW IS AN EXACT SOLUTION.

 NO OUTPUT CONTROL FOR STRESS PERIOD   25   TIME STEP 2483

 -------------------------------------------------------------------------------
                             SWR1 OUTPUT PRINT TIMES
                        STRESS PERIOD   25   TIME STEP  2483
 --------------- --------------- --------------- --------------- ---------------
     0.38436E+06                                                                
 -------------------------------------------------------------------------------
 
 SOLVING FOR HEAD 
 INITIAL HNEW IS AN EXACT SOLUTION.

 NO OUTPUT CONTROL FOR STRESS PERIOD   25   TIME STEP 2484

 -------------------------------------------------------------------------------
                             SWR1 OUTPUT PRINT TIMES
                        STRESS PERIOD   25   TIME STEP  2484
 --------------- --------------- --------------- --------------- ---------------
     0.38448E+06                                                                
 -------------------------------------------------------------------------------
 
 SOLVING FOR HEAD 
 INITIAL HNEW IS AN EXACT SOLUTION.

 NO OUTPUT CONTROL FOR STRESS PERIOD   25   TIME STEP 2485

 -------------------------------------------------------------------------------
                             SWR1 OUTPUT PRINT TIMES
                        STRESS PERIOD   25   TIME STEP  2485
 --------------- --------------- --------------- --------------- ---------------
     0.38460E+06                                                                
 -------------------------------------------------------------------------------
 
 SOLVING FOR HEAD 
 INITIAL HNEW IS AN EXACT SOLUTION.

 NO OUTPUT CONTROL FOR STRESS PERIOD   25   TIME STEP 2486

 -------------------------------------------------------------------------------
                             SWR1 OUTPUT PRINT TIMES
                        STRESS PERIOD   25   TIME STEP  2486
 --------------- --------------- --------------- --------------- ---------------
     0.38472E+06                                                                
 -------------------------------------------------------------------------------
 
 SOLVING FOR HEAD 
 INITIAL HNEW IS AN EXACT SOLUTION.

 NO OUTPUT CONTROL FOR STRESS PERIOD   25   TIME STEP 2487

 -------------------------------------------------------------------------------
                             SWR1 OUTPUT PRINT TIMES
                        STRESS PERIOD   25   TIME STEP  2487
 --------------- --------------- --------------- --------------- ---------------
     0.38484E+06                                                                
 -------------------------------------------------------------------------------
 
 SOLVING FOR HEAD 
 INITIAL HNEW IS AN EXACT SOLUTION.

 NO OUTPUT CONTROL FOR STRESS PERIOD   25   TIME STEP 2488

 -------------------------------------------------------------------------------
                             SWR1 OUTPUT PRINT TIMES
                        STRESS PERIOD   25   TIME STEP  2488
 --------------- --------------- --------------- --------------- ---------------
     0.38496E+06                                                                
 -------------------------------------------------------------------------------
 
 SOLVING FOR HEAD 
 INITIAL HNEW IS AN EXACT SOLUTION.

 NO OUTPUT CONTROL FOR STRESS PERIOD   25   TIME STEP 2489

 -------------------------------------------------------------------------------
                             SWR1 OUTPUT PRINT TIMES
                        STRESS PERIOD   25   TIME STEP  2489
 --------------- --------------- --------------- --------------- ---------------
     0.38508E+06                                                                
 -------------------------------------------------------------------------------
 
 SOLVING FOR HEAD 
 INITIAL HNEW IS AN EXACT SOLUTION.

 NO OUTPUT CONTROL FOR STRESS PERIOD   25   TIME STEP 2490

 -------------------------------------------------------------------------------
                             SWR1 OUTPUT PRINT TIMES
                        STRESS PERIOD   25   TIME STEP  2490
 --------------- --------------- --------------- --------------- ---------------
     0.38520E+06                                                                
 -------------------------------------------------------------------------------
 
 SOLVING FOR HEAD 
 INITIAL HNEW IS AN EXACT SOLUTION.

 NO OUTPUT CONTROL FOR STRESS PERIOD   25   TIME STEP 2491

 -------------------------------------------------------------------------------
                             SWR1 OUTPUT PRINT TIMES
                        STRESS PERIOD   25   TIME STEP  2491
 --------------- --------------- --------------- --------------- ---------------
     0.38532E+06                                                                
 -------------------------------------------------------------------------------
 
 SOLVING FOR HEAD 
 INITIAL HNEW IS AN EXACT SOLUTION.

 NO OUTPUT CONTROL FOR STRESS PERIOD   25   TIME STEP 2492

 -------------------------------------------------------------------------------
                             SWR1 OUTPUT PRINT TIMES
                        STRESS PERIOD   25   TIME STEP  2492
 --------------- --------------- --------------- --------------- ---------------
     0.38544E+06                                                                
 -------------------------------------------------------------------------------
 
 SOLVING FOR HEAD 
 INITIAL HNEW IS AN EXACT SOLUTION.

 NO OUTPUT CONTROL FOR STRESS PERIOD   25   TIME STEP 2493

 -------------------------------------------------------------------------------
                             SWR1 OUTPUT PRINT TIMES
                        STRESS PERIOD   25   TIME STEP  2493
 --------------- --------------- --------------- --------------- ---------------
     0.38556E+06                                                                
 -------------------------------------------------------------------------------
 
 SOLVING FOR HEAD 
 INITIAL HNEW IS AN EXACT SOLUTION.

 NO OUTPUT CONTROL FOR STRESS PERIOD   25   TIME STEP 2494

 -------------------------------------------------------------------------------
                             SWR1 OUTPUT PRINT TIMES
                        STRESS PERIOD   25   TIME STEP  2494
 --------------- --------------- --------------- --------------- ---------------
     0.38568E+06                                                                
 -------------------------------------------------------------------------------
 
 SOLVING FOR HEAD 
 INITIAL HNEW IS AN EXACT SOLUTION.

 NO OUTPUT CONTROL FOR STRESS PERIOD   25   TIME STEP 2495

 -------------------------------------------------------------------------------
                             SWR1 OUTPUT PRINT TIMES
                        STRESS PERIOD   25   TIME STEP  2495
 --------------- --------------- --------------- --------------- ---------------
     0.38580E+06                                                                
 -------------------------------------------------------------------------------
 
 SOLVING FOR HEAD 
 INITIAL HNEW IS AN EXACT SOLUTION.

 NO OUTPUT CONTROL FOR STRESS PERIOD   25   TIME STEP 2496

 -------------------------------------------------------------------------------
                             SWR1 OUTPUT PRINT TIMES
                        STRESS PERIOD   25   TIME STEP  2496
 --------------- --------------- --------------- --------------- ---------------
     0.38592E+06                                                                
 -------------------------------------------------------------------------------
 
 SOLVING FOR HEAD 
 INITIAL HNEW IS AN EXACT SOLUTION.

 NO OUTPUT CONTROL FOR STRESS PERIOD   25   TIME STEP 2497

 -------------------------------------------------------------------------------
                             SWR1 OUTPUT PRINT TIMES
                        STRESS PERIOD   25   TIME STEP  2497
 --------------- --------------- --------------- --------------- ---------------
     0.38604E+06                                                                
 -------------------------------------------------------------------------------
 
 SOLVING FOR HEAD 
 INITIAL HNEW IS AN EXACT SOLUTION.

 NO OUTPUT CONTROL FOR STRESS PERIOD   25   TIME STEP 2498

 -------------------------------------------------------------------------------
                             SWR1 OUTPUT PRINT TIMES
                        STRESS PERIOD   25   TIME STEP  2498
 --------------- --------------- --------------- --------------- ---------------
     0.38616E+06                                                                
 -------------------------------------------------------------------------------
 
 SOLVING FOR HEAD 
 INITIAL HNEW IS AN EXACT SOLUTION.

 NO OUTPUT CONTROL FOR STRESS PERIOD   25   TIME STEP 2499

 -------------------------------------------------------------------------------
                             SWR1 OUTPUT PRINT TIMES
                        STRESS PERIOD   25   TIME STEP  2499
 --------------- --------------- --------------- --------------- ---------------
     0.38628E+06                                                                
 -------------------------------------------------------------------------------
 
 SOLVING FOR HEAD 
 INITIAL HNEW IS AN EXACT SOLUTION.

 NO OUTPUT CONTROL FOR STRESS PERIOD   25   TIME STEP 2500

 -------------------------------------------------------------------------------
                             SWR1 OUTPUT PRINT TIMES
                        STRESS PERIOD   25   TIME STEP  2500
 --------------- --------------- --------------- --------------- ---------------
     0.38640E+06                                                                
 -------------------------------------------------------------------------------
 
 SOLVING FOR HEAD 
 INITIAL HNEW IS AN EXACT SOLUTION.

 NO OUTPUT CONTROL FOR STRESS PERIOD   25   TIME STEP 2501

 -------------------------------------------------------------------------------
                             SWR1 OUTPUT PRINT TIMES
                        STRESS PERIOD   25   TIME STEP  2501
 --------------- --------------- --------------- --------------- ---------------
     0.38652E+06                                                                
 -------------------------------------------------------------------------------
 
 SOLVING FOR HEAD 
 INITIAL HNEW IS AN EXACT SOLUTION.

 NO OUTPUT CONTROL FOR STRESS PERIOD   25   TIME STEP 2502

 -------------------------------------------------------------------------------
                             SWR1 OUTPUT PRINT TIMES
                        STRESS PERIOD   25   TIME STEP  2502
 --------------- --------------- --------------- --------------- ---------------
     0.38664E+06                                                                
 -------------------------------------------------------------------------------
 
 SOLVING FOR HEAD 
 INITIAL HNEW IS AN EXACT SOLUTION.

 NO OUTPUT CONTROL FOR STRESS PERIOD   25   TIME STEP 2503

 -------------------------------------------------------------------------------
                             SWR1 OUTPUT PRINT TIMES
                        STRESS PERIOD   25   TIME STEP  2503
 --------------- --------------- --------------- --------------- ---------------
     0.38676E+06                                                                
 -------------------------------------------------------------------------------
 
 SOLVING FOR HEAD 
 INITIAL HNEW IS AN EXACT SOLUTION.

 NO OUTPUT CONTROL FOR STRESS PERIOD   25   TIME STEP 2504

 -------------------------------------------------------------------------------
                             SWR1 OUTPUT PRINT TIMES
                        STRESS PERIOD   25   TIME STEP  2504
 --------------- --------------- --------------- --------------- ---------------
     0.38688E+06                                                                
 -------------------------------------------------------------------------------
 
 SOLVING FOR HEAD 
 INITIAL HNEW IS AN EXACT SOLUTION.

 NO OUTPUT CONTROL FOR STRESS PERIOD   25   TIME STEP 2505

 -------------------------------------------------------------------------------
                             SWR1 OUTPUT PRINT TIMES
                        STRESS PERIOD   25   TIME STEP  2505
 --------------- --------------- --------------- --------------- ---------------
     0.38700E+06                                                                
 -------------------------------------------------------------------------------
 
 SOLVING FOR HEAD 
 INITIAL HNEW IS AN EXACT SOLUTION.

 NO OUTPUT CONTROL FOR STRESS PERIOD   25   TIME STEP 2506

 -------------------------------------------------------------------------------
                             SWR1 OUTPUT PRINT TIMES
                        STRESS PERIOD   25   TIME STEP  2506
 --------------- --------------- --------------- --------------- ---------------
     0.38712E+06                                                                
 -------------------------------------------------------------------------------
 
 SOLVING FOR HEAD 
 INITIAL HNEW IS AN EXACT SOLUTION.

 NO OUTPUT CONTROL FOR STRESS PERIOD   25   TIME STEP 2507

 -------------------------------------------------------------------------------
                             SWR1 OUTPUT PRINT TIMES
                        STRESS PERIOD   25   TIME STEP  2507
 --------------- --------------- --------------- --------------- ---------------
     0.38724E+06                                                                
 -------------------------------------------------------------------------------
 
 SOLVING FOR HEAD 
 INITIAL HNEW IS AN EXACT SOLUTION.

 NO OUTPUT CONTROL FOR STRESS PERIOD   25   TIME STEP 2508

 -------------------------------------------------------------------------------
                             SWR1 OUTPUT PRINT TIMES
                        STRESS PERIOD   25   TIME STEP  2508
 --------------- --------------- --------------- --------------- ---------------
     0.38736E+06                                                                
 -------------------------------------------------------------------------------
 
 SOLVING FOR HEAD 
 INITIAL HNEW IS AN EXACT SOLUTION.

 NO OUTPUT CONTROL FOR STRESS PERIOD   25   TIME STEP 2509

 -------------------------------------------------------------------------------
                             SWR1 OUTPUT PRINT TIMES
                        STRESS PERIOD   25   TIME STEP  2509
 --------------- --------------- --------------- --------------- ---------------
     0.38748E+06                                                                
 -------------------------------------------------------------------------------
 
 SOLVING FOR HEAD 
 INITIAL HNEW IS AN EXACT SOLUTION.

 NO OUTPUT CONTROL FOR STRESS PERIOD   25   TIME STEP 2510

 -------------------------------------------------------------------------------
                             SWR1 OUTPUT PRINT TIMES
                        STRESS PERIOD   25   TIME STEP  2510
 --------------- --------------- --------------- --------------- ---------------
     0.38760E+06                                                                
 -------------------------------------------------------------------------------
 
 SOLVING FOR HEAD 
 INITIAL HNEW IS AN EXACT SOLUTION.

 NO OUTPUT CONTROL FOR STRESS PERIOD   25   TIME STEP 2511

 -------------------------------------------------------------------------------
                             SWR1 OUTPUT PRINT TIMES
                        STRESS PERIOD   25   TIME STEP  2511
 --------------- --------------- --------------- --------------- ---------------
     0.38772E+06                                                                
 -------------------------------------------------------------------------------
 
 SOLVING FOR HEAD 
 INITIAL HNEW IS AN EXACT SOLUTION.

 NO OUTPUT CONTROL FOR STRESS PERIOD   25   TIME STEP 2512

 -------------------------------------------------------------------------------
                             SWR1 OUTPUT PRINT TIMES
                        STRESS PERIOD   25   TIME STEP  2512
 --------------- --------------- --------------- --------------- ---------------
     0.38784E+06                                                                
 -------------------------------------------------------------------------------
 
 SOLVING FOR HEAD 
 INITIAL HNEW IS AN EXACT SOLUTION.

 NO OUTPUT CONTROL FOR STRESS PERIOD   25   TIME STEP 2513

 -------------------------------------------------------------------------------
                             SWR1 OUTPUT PRINT TIMES
                        STRESS PERIOD   25   TIME STEP  2513
 --------------- --------------- --------------- --------------- ---------------
     0.38796E+06                                                                
 -------------------------------------------------------------------------------
 
 SOLVING FOR HEAD 
 INITIAL HNEW IS AN EXACT SOLUTION.

 NO OUTPUT CONTROL FOR STRESS PERIOD   25   TIME STEP 2514

 -------------------------------------------------------------------------------
                             SWR1 OUTPUT PRINT TIMES
                        STRESS PERIOD   25   TIME STEP  2514
 --------------- --------------- --------------- --------------- ---------------
     0.38808E+06                                                                
 -------------------------------------------------------------------------------
 
 SOLVING FOR HEAD 
 INITIAL HNEW IS AN EXACT SOLUTION.

 NO OUTPUT CONTROL FOR STRESS PERIOD   25   TIME STEP 2515

 -------------------------------------------------------------------------------
                             SWR1 OUTPUT PRINT TIMES
                        STRESS PERIOD   25   TIME STEP  2515
 --------------- --------------- --------------- --------------- ---------------
     0.38820E+06                                                                
 -------------------------------------------------------------------------------
 
 SOLVING FOR HEAD 
 INITIAL HNEW IS AN EXACT SOLUTION.

 NO OUTPUT CONTROL FOR STRESS PERIOD   25   TIME STEP 2516

 -------------------------------------------------------------------------------
                             SWR1 OUTPUT PRINT TIMES
                        STRESS PERIOD   25   TIME STEP  2516
 --------------- --------------- --------------- --------------- ---------------
     0.38832E+06                                                                
 -------------------------------------------------------------------------------
 
 SOLVING FOR HEAD 
 INITIAL HNEW IS AN EXACT SOLUTION.

 NO OUTPUT CONTROL FOR STRESS PERIOD   25   TIME STEP 2517

 -------------------------------------------------------------------------------
                             SWR1 OUTPUT PRINT TIMES
                        STRESS PERIOD   25   TIME STEP  2517
 --------------- --------------- --------------- --------------- ---------------
     0.38844E+06                                                                
 -------------------------------------------------------------------------------
 
 SOLVING FOR HEAD 
 INITIAL HNEW IS AN EXACT SOLUTION.

 NO OUTPUT CONTROL FOR STRESS PERIOD   25   TIME STEP 2518

 -------------------------------------------------------------------------------
                             SWR1 OUTPUT PRINT TIMES
                        STRESS PERIOD   25   TIME STEP  2518
 --------------- --------------- --------------- --------------- ---------------
     0.38856E+06                                                                
 -------------------------------------------------------------------------------
 
 SOLVING FOR HEAD 
 INITIAL HNEW IS AN EXACT SOLUTION.

 NO OUTPUT CONTROL FOR STRESS PERIOD   25   TIME STEP 2519

 -------------------------------------------------------------------------------
                             SWR1 OUTPUT PRINT TIMES
                        STRESS PERIOD   25   TIME STEP  2519
 --------------- --------------- --------------- --------------- ---------------
     0.38868E+06                                                                
 -------------------------------------------------------------------------------
 
 SOLVING FOR HEAD 
 INITIAL HNEW IS AN EXACT SOLUTION.

 NO OUTPUT CONTROL FOR STRESS PERIOD   25   TIME STEP 2520

 -------------------------------------------------------------------------------
                             SWR1 OUTPUT PRINT TIMES
                        STRESS PERIOD   25   TIME STEP  2520
 --------------- --------------- --------------- --------------- ---------------
     0.38880E+06                                                                
 -------------------------------------------------------------------------------
 
 SOLVING FOR HEAD 
 INITIAL HNEW IS AN EXACT SOLUTION.

 NO OUTPUT CONTROL FOR STRESS PERIOD   25   TIME STEP 2521

 -------------------------------------------------------------------------------
                             SWR1 OUTPUT PRINT TIMES
                        STRESS PERIOD   25   TIME STEP  2521
 --------------- --------------- --------------- --------------- ---------------
     0.38892E+06                                                                
 -------------------------------------------------------------------------------
 
 SOLVING FOR HEAD 
 INITIAL HNEW IS AN EXACT SOLUTION.

 NO OUTPUT CONTROL FOR STRESS PERIOD   25   TIME STEP 2522

 -------------------------------------------------------------------------------
                             SWR1 OUTPUT PRINT TIMES
                        STRESS PERIOD   25   TIME STEP  2522
 --------------- --------------- --------------- --------------- ---------------
     0.38904E+06                                                                
 -------------------------------------------------------------------------------
 
 SOLVING FOR HEAD 
 INITIAL HNEW IS AN EXACT SOLUTION.

 NO OUTPUT CONTROL FOR STRESS PERIOD   25   TIME STEP 2523

 -------------------------------------------------------------------------------
                             SWR1 OUTPUT PRINT TIMES
                        STRESS PERIOD   25   TIME STEP  2523
 --------------- --------------- --------------- --------------- ---------------
     0.38916E+06                                                                
 -------------------------------------------------------------------------------
 
 SOLVING FOR HEAD 
 INITIAL HNEW IS AN EXACT SOLUTION.

 NO OUTPUT CONTROL FOR STRESS PERIOD   25   TIME STEP 2524

 -------------------------------------------------------------------------------
                             SWR1 OUTPUT PRINT TIMES
                        STRESS PERIOD   25   TIME STEP  2524
 --------------- --------------- --------------- --------------- ---------------
     0.38928E+06                                                                
 -------------------------------------------------------------------------------
 
 SOLVING FOR HEAD 
 INITIAL HNEW IS AN EXACT SOLUTION.

 NO OUTPUT CONTROL FOR STRESS PERIOD   25   TIME STEP 2525

 -------------------------------------------------------------------------------
                             SWR1 OUTPUT PRINT TIMES
                        STRESS PERIOD   25   TIME STEP  2525
 --------------- --------------- --------------- --------------- ---------------
     0.38940E+06                                                                
 -------------------------------------------------------------------------------
 
 SOLVING FOR HEAD 
 INITIAL HNEW IS AN EXACT SOLUTION.

 NO OUTPUT CONTROL FOR STRESS PERIOD   25   TIME STEP 2526

 -------------------------------------------------------------------------------
                             SWR1 OUTPUT PRINT TIMES
                        STRESS PERIOD   25   TIME STEP  2526
 --------------- --------------- --------------- --------------- ---------------
     0.38952E+06                                                                
 -------------------------------------------------------------------------------
 
 SOLVING FOR HEAD 
 INITIAL HNEW IS AN EXACT SOLUTION.

 NO OUTPUT CONTROL FOR STRESS PERIOD   25   TIME STEP 2527

 -------------------------------------------------------------------------------
                             SWR1 OUTPUT PRINT TIMES
                        STRESS PERIOD   25   TIME STEP  2527
 --------------- --------------- --------------- --------------- ---------------
     0.38964E+06                                                                
 -------------------------------------------------------------------------------
 
 SOLVING FOR HEAD 
 INITIAL HNEW IS AN EXACT SOLUTION.

 NO OUTPUT CONTROL FOR STRESS PERIOD   25   TIME STEP 2528

 -------------------------------------------------------------------------------
                             SWR1 OUTPUT PRINT TIMES
                        STRESS PERIOD   25   TIME STEP  2528
 --------------- --------------- --------------- --------------- ---------------
     0.38976E+06                                                                
 -------------------------------------------------------------------------------
 
 SOLVING FOR HEAD 
 INITIAL HNEW IS AN EXACT SOLUTION.

 NO OUTPUT CONTROL FOR STRESS PERIOD   25   TIME STEP 2529

 -------------------------------------------------------------------------------
                             SWR1 OUTPUT PRINT TIMES
                        STRESS PERIOD   25   TIME STEP  2529
 --------------- --------------- --------------- --------------- ---------------
     0.38988E+06                                                                
 -------------------------------------------------------------------------------
 
 SOLVING FOR HEAD 
 INITIAL HNEW IS AN EXACT SOLUTION.

 NO OUTPUT CONTROL FOR STRESS PERIOD   25   TIME STEP 2530

 -------------------------------------------------------------------------------
                             SWR1 OUTPUT PRINT TIMES
                        STRESS PERIOD   25   TIME STEP  2530
 --------------- --------------- --------------- --------------- ---------------
     0.39000E+06                                                                
 -------------------------------------------------------------------------------
 
 SOLVING FOR HEAD 
 INITIAL HNEW IS AN EXACT SOLUTION.

 NO OUTPUT CONTROL FOR STRESS PERIOD   25   TIME STEP 2531

 -------------------------------------------------------------------------------
                             SWR1 OUTPUT PRINT TIMES
                        STRESS PERIOD   25   TIME STEP  2531
 --------------- --------------- --------------- --------------- ---------------
     0.39012E+06                                                                
 -------------------------------------------------------------------------------
 
 SOLVING FOR HEAD 
 INITIAL HNEW IS AN EXACT SOLUTION.

 NO OUTPUT CONTROL FOR STRESS PERIOD   25   TIME STEP 2532

 -------------------------------------------------------------------------------
                             SWR1 OUTPUT PRINT TIMES
                        STRESS PERIOD   25   TIME STEP  2532
 --------------- --------------- --------------- --------------- ---------------
     0.39024E+06                                                                
 -------------------------------------------------------------------------------
 
 SOLVING FOR HEAD 
 INITIAL HNEW IS AN EXACT SOLUTION.

 NO OUTPUT CONTROL FOR STRESS PERIOD   25   TIME STEP 2533

 -------------------------------------------------------------------------------
                             SWR1 OUTPUT PRINT TIMES
                        STRESS PERIOD   25   TIME STEP  2533
 --------------- --------------- --------------- --------------- ---------------
     0.39036E+06                                                                
 -------------------------------------------------------------------------------
 
 SOLVING FOR HEAD 
 INITIAL HNEW IS AN EXACT SOLUTION.

 NO OUTPUT CONTROL FOR STRESS PERIOD   25   TIME STEP 2534

 -------------------------------------------------------------------------------
                             SWR1 OUTPUT PRINT TIMES
                        STRESS PERIOD   25   TIME STEP  2534
 --------------- --------------- --------------- --------------- ---------------
     0.39048E+06                                                                
 -------------------------------------------------------------------------------
 
 SOLVING FOR HEAD 
 INITIAL HNEW IS AN EXACT SOLUTION.

 NO OUTPUT CONTROL FOR STRESS PERIOD   25   TIME STEP 2535

 -------------------------------------------------------------------------------
                             SWR1 OUTPUT PRINT TIMES
                        STRESS PERIOD   25   TIME STEP  2535
 --------------- --------------- --------------- --------------- ---------------
     0.39060E+06                                                                
 -------------------------------------------------------------------------------
 
 SOLVING FOR HEAD 
 INITIAL HNEW IS AN EXACT SOLUTION.

 NO OUTPUT CONTROL FOR STRESS PERIOD   25   TIME STEP 2536

 -------------------------------------------------------------------------------
                             SWR1 OUTPUT PRINT TIMES
                        STRESS PERIOD   25   TIME STEP  2536
 --------------- --------------- --------------- --------------- ---------------
     0.39072E+06                                                                
 -------------------------------------------------------------------------------
 
 SOLVING FOR HEAD 
 INITIAL HNEW IS AN EXACT SOLUTION.

 NO OUTPUT CONTROL FOR STRESS PERIOD   25   TIME STEP 2537

 -------------------------------------------------------------------------------
                             SWR1 OUTPUT PRINT TIMES
                        STRESS PERIOD   25   TIME STEP  2537
 --------------- --------------- --------------- --------------- ---------------
     0.39084E+06                                                                
 -------------------------------------------------------------------------------
 
 SOLVING FOR HEAD 
 INITIAL HNEW IS AN EXACT SOLUTION.

 NO OUTPUT CONTROL FOR STRESS PERIOD   25   TIME STEP 2538

 -------------------------------------------------------------------------------
                             SWR1 OUTPUT PRINT TIMES
                        STRESS PERIOD   25   TIME STEP  2538
 --------------- --------------- --------------- --------------- ---------------
     0.39096E+06                                                                
 -------------------------------------------------------------------------------
 
 SOLVING FOR HEAD 
 INITIAL HNEW IS AN EXACT SOLUTION.

 NO OUTPUT CONTROL FOR STRESS PERIOD   25   TIME STEP 2539

 -------------------------------------------------------------------------------
                             SWR1 OUTPUT PRINT TIMES
                        STRESS PERIOD   25   TIME STEP  2539
 --------------- --------------- --------------- --------------- ---------------
     0.39108E+06                                                                
 -------------------------------------------------------------------------------
 
 SOLVING FOR HEAD 
 INITIAL HNEW IS AN EXACT SOLUTION.

 NO OUTPUT CONTROL FOR STRESS PERIOD   25   TIME STEP 2540

 -------------------------------------------------------------------------------
                             SWR1 OUTPUT PRINT TIMES
                        STRESS PERIOD   25   TIME STEP  2540
 --------------- --------------- --------------- --------------- ---------------
     0.39120E+06                                                                
 -------------------------------------------------------------------------------
 
 SOLVING FOR HEAD 
 INITIAL HNEW IS AN EXACT SOLUTION.

 NO OUTPUT CONTROL FOR STRESS PERIOD   25   TIME STEP 2541

 -------------------------------------------------------------------------------
                             SWR1 OUTPUT PRINT TIMES
                        STRESS PERIOD   25   TIME STEP  2541
 --------------- --------------- --------------- --------------- ---------------
     0.39132E+06                                                                
 -------------------------------------------------------------------------------
 
 SOLVING FOR HEAD 
 INITIAL HNEW IS AN EXACT SOLUTION.

 NO OUTPUT CONTROL FOR STRESS PERIOD   25   TIME STEP 2542

 -------------------------------------------------------------------------------
                             SWR1 OUTPUT PRINT TIMES
                        STRESS PERIOD   25   TIME STEP  2542
 --------------- --------------- --------------- --------------- ---------------
     0.39144E+06                                                                
 -------------------------------------------------------------------------------
 
 SOLVING FOR HEAD 
 INITIAL HNEW IS AN EXACT SOLUTION.

 NO OUTPUT CONTROL FOR STRESS PERIOD   25   TIME STEP 2543

 -------------------------------------------------------------------------------
                             SWR1 OUTPUT PRINT TIMES
                        STRESS PERIOD   25   TIME STEP  2543
 --------------- --------------- --------------- --------------- ---------------
     0.39156E+06                                                                
 -------------------------------------------------------------------------------
 
 SOLVING FOR HEAD 
 INITIAL HNEW IS AN EXACT SOLUTION.

 NO OUTPUT CONTROL FOR STRESS PERIOD   25   TIME STEP 2544

 -------------------------------------------------------------------------------
                             SWR1 OUTPUT PRINT TIMES
                        STRESS PERIOD   25   TIME STEP  2544
 --------------- --------------- --------------- --------------- ---------------
     0.39168E+06                                                                
 -------------------------------------------------------------------------------
 
 SOLVING FOR HEAD 
 INITIAL HNEW IS AN EXACT SOLUTION.

 NO OUTPUT CONTROL FOR STRESS PERIOD   25   TIME STEP 2545

 -------------------------------------------------------------------------------
                             SWR1 OUTPUT PRINT TIMES
                        STRESS PERIOD   25   TIME STEP  2545
 --------------- --------------- --------------- --------------- ---------------
     0.39180E+06                                                                
 -------------------------------------------------------------------------------
 
 SOLVING FOR HEAD 
 INITIAL HNEW IS AN EXACT SOLUTION.

 NO OUTPUT CONTROL FOR STRESS PERIOD   25   TIME STEP 2546

 -------------------------------------------------------------------------------
                             SWR1 OUTPUT PRINT TIMES
                        STRESS PERIOD   25   TIME STEP  2546
 --------------- --------------- --------------- --------------- ---------------
     0.39192E+06                                                                
 -------------------------------------------------------------------------------
 
 SOLVING FOR HEAD 
 INITIAL HNEW IS AN EXACT SOLUTION.

 NO OUTPUT CONTROL FOR STRESS PERIOD   25   TIME STEP 2547

 -------------------------------------------------------------------------------
                             SWR1 OUTPUT PRINT TIMES
                        STRESS PERIOD   25   TIME STEP  2547
 --------------- --------------- --------------- --------------- ---------------
     0.39204E+06                                                                
 -------------------------------------------------------------------------------
 
 SOLVING FOR HEAD 
 INITIAL HNEW IS AN EXACT SOLUTION.

 NO OUTPUT CONTROL FOR STRESS PERIOD   25   TIME STEP 2548

 -------------------------------------------------------------------------------
                             SWR1 OUTPUT PRINT TIMES
                        STRESS PERIOD   25   TIME STEP  2548
 --------------- --------------- --------------- --------------- ---------------
     0.39216E+06                                                                
 -------------------------------------------------------------------------------
 
 SOLVING FOR HEAD 
 INITIAL HNEW IS AN EXACT SOLUTION.

 NO OUTPUT CONTROL FOR STRESS PERIOD   25   TIME STEP 2549

 -------------------------------------------------------------------------------
                             SWR1 OUTPUT PRINT TIMES
                        STRESS PERIOD   25   TIME STEP  2549
 --------------- --------------- --------------- --------------- ---------------
     0.39228E+06                                                                
 -------------------------------------------------------------------------------
 
 SOLVING FOR HEAD 
 INITIAL HNEW IS AN EXACT SOLUTION.

 NO OUTPUT CONTROL FOR STRESS PERIOD   25   TIME STEP 2550

 -------------------------------------------------------------------------------
                             SWR1 OUTPUT PRINT TIMES
                        STRESS PERIOD   25   TIME STEP  2550
 --------------- --------------- --------------- --------------- ---------------
     0.39240E+06                                                                
 -------------------------------------------------------------------------------
 
 SOLVING FOR HEAD 
 INITIAL HNEW IS AN EXACT SOLUTION.

 NO OUTPUT CONTROL FOR STRESS PERIOD   25   TIME STEP 2551

 -------------------------------------------------------------------------------
                             SWR1 OUTPUT PRINT TIMES
                        STRESS PERIOD   25   TIME STEP  2551
 --------------- --------------- --------------- --------------- ---------------
     0.39252E+06                                                                
 -------------------------------------------------------------------------------
 
 SOLVING FOR HEAD 
 INITIAL HNEW IS AN EXACT SOLUTION.

 NO OUTPUT CONTROL FOR STRESS PERIOD   25   TIME STEP 2552

 -------------------------------------------------------------------------------
                             SWR1 OUTPUT PRINT TIMES
                        STRESS PERIOD   25   TIME STEP  2552
 --------------- --------------- --------------- --------------- ---------------
     0.39264E+06                                                                
 -------------------------------------------------------------------------------
 
 SOLVING FOR HEAD 
 INITIAL HNEW IS AN EXACT SOLUTION.

 NO OUTPUT CONTROL FOR STRESS PERIOD   25   TIME STEP 2553

 -------------------------------------------------------------------------------
                             SWR1 OUTPUT PRINT TIMES
                        STRESS PERIOD   25   TIME STEP  2553
 --------------- --------------- --------------- --------------- ---------------
     0.39276E+06                                                                
 -------------------------------------------------------------------------------
 
 SOLVING FOR HEAD 
 INITIAL HNEW IS AN EXACT SOLUTION.

 NO OUTPUT CONTROL FOR STRESS PERIOD   25   TIME STEP 2554

 -------------------------------------------------------------------------------
                             SWR1 OUTPUT PRINT TIMES
                        STRESS PERIOD   25   TIME STEP  2554
 --------------- --------------- --------------- --------------- ---------------
     0.39288E+06                                                                
 -------------------------------------------------------------------------------
 
 SOLVING FOR HEAD 
 INITIAL HNEW IS AN EXACT SOLUTION.

 NO OUTPUT CONTROL FOR STRESS PERIOD   25   TIME STEP 2555

 -------------------------------------------------------------------------------
                             SWR1 OUTPUT PRINT TIMES
                        STRESS PERIOD   25   TIME STEP  2555
 --------------- --------------- --------------- --------------- ---------------
     0.39300E+06                                                                
 -------------------------------------------------------------------------------
 
 SOLVING FOR HEAD 
 INITIAL HNEW IS AN EXACT SOLUTION.

 NO OUTPUT CONTROL FOR STRESS PERIOD   25   TIME STEP 2556

 -------------------------------------------------------------------------------
                             SWR1 OUTPUT PRINT TIMES
                        STRESS PERIOD   25   TIME STEP  2556
 --------------- --------------- --------------- --------------- ---------------
     0.39312E+06                                                                
 -------------------------------------------------------------------------------
 
 SOLVING FOR HEAD 
 INITIAL HNEW IS AN EXACT SOLUTION.

 NO OUTPUT CONTROL FOR STRESS PERIOD   25   TIME STEP 2557

 -------------------------------------------------------------------------------
                             SWR1 OUTPUT PRINT TIMES
                        STRESS PERIOD   25   TIME STEP  2557
 --------------- --------------- --------------- --------------- ---------------
     0.39324E+06                                                                
 -------------------------------------------------------------------------------
 
 SOLVING FOR HEAD 
 INITIAL HNEW IS AN EXACT SOLUTION.

 NO OUTPUT CONTROL FOR STRESS PERIOD   25   TIME STEP 2558

 -------------------------------------------------------------------------------
                             SWR1 OUTPUT PRINT TIMES
                        STRESS PERIOD   25   TIME STEP  2558
 --------------- --------------- --------------- --------------- ---------------
     0.39336E+06                                                                
 -------------------------------------------------------------------------------
 
 SOLVING FOR HEAD 
 INITIAL HNEW IS AN EXACT SOLUTION.

 NO OUTPUT CONTROL FOR STRESS PERIOD   25   TIME STEP 2559

 -------------------------------------------------------------------------------
                             SWR1 OUTPUT PRINT TIMES
                        STRESS PERIOD   25   TIME STEP  2559
 --------------- --------------- --------------- --------------- ---------------
     0.39348E+06                                                                
 -------------------------------------------------------------------------------
 
 SOLVING FOR HEAD 
 INITIAL HNEW IS AN EXACT SOLUTION.

 NO OUTPUT CONTROL FOR STRESS PERIOD   25   TIME STEP 2560

 -------------------------------------------------------------------------------
                             SWR1 OUTPUT PRINT TIMES
                        STRESS PERIOD   25   TIME STEP  2560
 --------------- --------------- --------------- --------------- ---------------
     0.39360E+06                                                                
 -------------------------------------------------------------------------------
 
 SOLVING FOR HEAD 
 INITIAL HNEW IS AN EXACT SOLUTION.

 NO OUTPUT CONTROL FOR STRESS PERIOD   25   TIME STEP 2561

 -------------------------------------------------------------------------------
                             SWR1 OUTPUT PRINT TIMES
                        STRESS PERIOD   25   TIME STEP  2561
 --------------- --------------- --------------- --------------- ---------------
     0.39372E+06                                                                
 -------------------------------------------------------------------------------
 
 SOLVING FOR HEAD 
 INITIAL HNEW IS AN EXACT SOLUTION.

 NO OUTPUT CONTROL FOR STRESS PERIOD   25   TIME STEP 2562

 -------------------------------------------------------------------------------
                             SWR1 OUTPUT PRINT TIMES
                        STRESS PERIOD   25   TIME STEP  2562
 --------------- --------------- --------------- --------------- ---------------
     0.39384E+06                                                                
 -------------------------------------------------------------------------------
 
 SOLVING FOR HEAD 
 INITIAL HNEW IS AN EXACT SOLUTION.

 NO OUTPUT CONTROL FOR STRESS PERIOD   25   TIME STEP 2563

 -------------------------------------------------------------------------------
                             SWR1 OUTPUT PRINT TIMES
                        STRESS PERIOD   25   TIME STEP  2563
 --------------- --------------- --------------- --------------- ---------------
     0.39396E+06                                                                
 -------------------------------------------------------------------------------
 
 SOLVING FOR HEAD 
 INITIAL HNEW IS AN EXACT SOLUTION.

 NO OUTPUT CONTROL FOR STRESS PERIOD   25   TIME STEP 2564

 -------------------------------------------------------------------------------
                             SWR1 OUTPUT PRINT TIMES
                        STRESS PERIOD   25   TIME STEP  2564
 --------------- --------------- --------------- --------------- ---------------
     0.39408E+06                                                                
 -------------------------------------------------------------------------------
 
 SOLVING FOR HEAD 
 INITIAL HNEW IS AN EXACT SOLUTION.

 NO OUTPUT CONTROL FOR STRESS PERIOD   25   TIME STEP 2565

 -------------------------------------------------------------------------------
                             SWR1 OUTPUT PRINT TIMES
                        STRESS PERIOD   25   TIME STEP  2565
 --------------- --------------- --------------- --------------- ---------------
     0.39420E+06                                                                
 -------------------------------------------------------------------------------
 
 SOLVING FOR HEAD 
 INITIAL HNEW IS AN EXACT SOLUTION.

 NO OUTPUT CONTROL FOR STRESS PERIOD   25   TIME STEP 2566

 -------------------------------------------------------------------------------
                             SWR1 OUTPUT PRINT TIMES
                        STRESS PERIOD   25   TIME STEP  2566
 --------------- --------------- --------------- --------------- ---------------
     0.39432E+06                                                                
 -------------------------------------------------------------------------------
 
 SOLVING FOR HEAD 
 INITIAL HNEW IS AN EXACT SOLUTION.

 NO OUTPUT CONTROL FOR STRESS PERIOD   25   TIME STEP 2567

 -------------------------------------------------------------------------------
                             SWR1 OUTPUT PRINT TIMES
                        STRESS PERIOD   25   TIME STEP  2567
 --------------- --------------- --------------- --------------- ---------------
     0.39444E+06                                                                
 -------------------------------------------------------------------------------
 
 SOLVING FOR HEAD 
 INITIAL HNEW IS AN EXACT SOLUTION.

 NO OUTPUT CONTROL FOR STRESS PERIOD   25   TIME STEP 2568

 -------------------------------------------------------------------------------
                             SWR1 OUTPUT PRINT TIMES
                        STRESS PERIOD   25   TIME STEP  2568
 --------------- --------------- --------------- --------------- ---------------
     0.39456E+06                                                                
 -------------------------------------------------------------------------------
 
 SOLVING FOR HEAD 
 INITIAL HNEW IS AN EXACT SOLUTION.

 NO OUTPUT CONTROL FOR STRESS PERIOD   25   TIME STEP 2569

 -------------------------------------------------------------------------------
                             SWR1 OUTPUT PRINT TIMES
                        STRESS PERIOD   25   TIME STEP  2569
 --------------- --------------- --------------- --------------- ---------------
     0.39468E+06                                                                
 -------------------------------------------------------------------------------
 
 SOLVING FOR HEAD 
 INITIAL HNEW IS AN EXACT SOLUTION.

 NO OUTPUT CONTROL FOR STRESS PERIOD   25   TIME STEP 2570

 -------------------------------------------------------------------------------
                             SWR1 OUTPUT PRINT TIMES
                        STRESS PERIOD   25   TIME STEP  2570
 --------------- --------------- --------------- --------------- ---------------
     0.39480E+06                                                                
 -------------------------------------------------------------------------------
 
 SOLVING FOR HEAD 
 INITIAL HNEW IS AN EXACT SOLUTION.

 NO OUTPUT CONTROL FOR STRESS PERIOD   25   TIME STEP 2571

 -------------------------------------------------------------------------------
                             SWR1 OUTPUT PRINT TIMES
                        STRESS PERIOD   25   TIME STEP  2571
 --------------- --------------- --------------- --------------- ---------------
     0.39492E+06                                                                
 -------------------------------------------------------------------------------
 
 SOLVING FOR HEAD 
 INITIAL HNEW IS AN EXACT SOLUTION.

 NO OUTPUT CONTROL FOR STRESS PERIOD   25   TIME STEP 2572

 -------------------------------------------------------------------------------
                             SWR1 OUTPUT PRINT TIMES
                        STRESS PERIOD   25   TIME STEP  2572
 --------------- --------------- --------------- --------------- ---------------
     0.39504E+06                                                                
 -------------------------------------------------------------------------------
 
 SOLVING FOR HEAD 
 INITIAL HNEW IS AN EXACT SOLUTION.

 NO OUTPUT CONTROL FOR STRESS PERIOD   25   TIME STEP 2573

 -------------------------------------------------------------------------------
                             SWR1 OUTPUT PRINT TIMES
                        STRESS PERIOD   25   TIME STEP  2573
 --------------- --------------- --------------- --------------- ---------------
     0.39516E+06                                                                
 -------------------------------------------------------------------------------
 
 SOLVING FOR HEAD 
 INITIAL HNEW IS AN EXACT SOLUTION.

 NO OUTPUT CONTROL FOR STRESS PERIOD   25   TIME STEP 2574

 -------------------------------------------------------------------------------
                             SWR1 OUTPUT PRINT TIMES
                        STRESS PERIOD   25   TIME STEP  2574
 --------------- --------------- --------------- --------------- ---------------
     0.39528E+06                                                                
 -------------------------------------------------------------------------------
 
 SOLVING FOR HEAD 
 INITIAL HNEW IS AN EXACT SOLUTION.

 NO OUTPUT CONTROL FOR STRESS PERIOD   25   TIME STEP 2575

 -------------------------------------------------------------------------------
                             SWR1 OUTPUT PRINT TIMES
                        STRESS PERIOD   25   TIME STEP  2575
 --------------- --------------- --------------- --------------- ---------------
     0.39540E+06                                                                
 -------------------------------------------------------------------------------
 
 SOLVING FOR HEAD 
 INITIAL HNEW IS AN EXACT SOLUTION.

 NO OUTPUT CONTROL FOR STRESS PERIOD   25   TIME STEP 2576

 -------------------------------------------------------------------------------
                             SWR1 OUTPUT PRINT TIMES
                        STRESS PERIOD   25   TIME STEP  2576
 --------------- --------------- --------------- --------------- ---------------
     0.39552E+06                                                                
 -------------------------------------------------------------------------------
 
 SOLVING FOR HEAD 
 INITIAL HNEW IS AN EXACT SOLUTION.

 NO OUTPUT CONTROL FOR STRESS PERIOD   25   TIME STEP 2577

 -------------------------------------------------------------------------------
                             SWR1 OUTPUT PRINT TIMES
                        STRESS PERIOD   25   TIME STEP  2577
 --------------- --------------- --------------- --------------- ---------------
     0.39564E+06                                                                
 -------------------------------------------------------------------------------
 
 SOLVING FOR HEAD 
 INITIAL HNEW IS AN EXACT SOLUTION.

 NO OUTPUT CONTROL FOR STRESS PERIOD   25   TIME STEP 2578

 -------------------------------------------------------------------------------
                             SWR1 OUTPUT PRINT TIMES
                        STRESS PERIOD   25   TIME STEP  2578
 --------------- --------------- --------------- --------------- ---------------
     0.39576E+06                                                                
 -------------------------------------------------------------------------------
 
 SOLVING FOR HEAD 
 INITIAL HNEW IS AN EXACT SOLUTION.

 NO OUTPUT CONTROL FOR STRESS PERIOD   25   TIME STEP 2579

 -------------------------------------------------------------------------------
                             SWR1 OUTPUT PRINT TIMES
                        STRESS PERIOD   25   TIME STEP  2579
 --------------- --------------- --------------- --------------- ---------------
     0.39588E+06                                                                
 -------------------------------------------------------------------------------
 
 SOLVING FOR HEAD 
 INITIAL HNEW IS AN EXACT SOLUTION.

 NO OUTPUT CONTROL FOR STRESS PERIOD   25   TIME STEP 2580

 -------------------------------------------------------------------------------
                             SWR1 OUTPUT PRINT TIMES
                        STRESS PERIOD   25   TIME STEP  2580
 --------------- --------------- --------------- --------------- ---------------
     0.39600E+06                                                                
 -------------------------------------------------------------------------------
 
 SOLVING FOR HEAD 
 INITIAL HNEW IS AN EXACT SOLUTION.

 NO OUTPUT CONTROL FOR STRESS PERIOD   25   TIME STEP 2581

 -------------------------------------------------------------------------------
                             SWR1 OUTPUT PRINT TIMES
                        STRESS PERIOD   25   TIME STEP  2581
 --------------- --------------- --------------- --------------- ---------------
     0.39612E+06                                                                
 -------------------------------------------------------------------------------
 
 SOLVING FOR HEAD 
 INITIAL HNEW IS AN EXACT SOLUTION.

 NO OUTPUT CONTROL FOR STRESS PERIOD   25   TIME STEP 2582

 -------------------------------------------------------------------------------
                             SWR1 OUTPUT PRINT TIMES
                        STRESS PERIOD   25   TIME STEP  2582
 --------------- --------------- --------------- --------------- ---------------
     0.39624E+06                                                                
 -------------------------------------------------------------------------------
 
 SOLVING FOR HEAD 
 INITIAL HNEW IS AN EXACT SOLUTION.

 NO OUTPUT CONTROL FOR STRESS PERIOD   25   TIME STEP 2583

 -------------------------------------------------------------------------------
                             SWR1 OUTPUT PRINT TIMES
                        STRESS PERIOD   25   TIME STEP  2583
 --------------- --------------- --------------- --------------- ---------------
     0.39636E+06                                                                
 -------------------------------------------------------------------------------
 
 SOLVING FOR HEAD 
 INITIAL HNEW IS AN EXACT SOLUTION.

 NO OUTPUT CONTROL FOR STRESS PERIOD   25   TIME STEP 2584

 -------------------------------------------------------------------------------
                             SWR1 OUTPUT PRINT TIMES
                        STRESS PERIOD   25   TIME STEP  2584
 --------------- --------------- --------------- --------------- ---------------
     0.39648E+06                                                                
 -------------------------------------------------------------------------------
 
 SOLVING FOR HEAD 
 INITIAL HNEW IS AN EXACT SOLUTION.

 NO OUTPUT CONTROL FOR STRESS PERIOD   25   TIME STEP 2585

 -------------------------------------------------------------------------------
                             SWR1 OUTPUT PRINT TIMES
                        STRESS PERIOD   25   TIME STEP  2585
 --------------- --------------- --------------- --------------- ---------------
     0.39660E+06                                                                
 -------------------------------------------------------------------------------
 
 SOLVING FOR HEAD 
 INITIAL HNEW IS AN EXACT SOLUTION.

 NO OUTPUT CONTROL FOR STRESS PERIOD   25   TIME STEP 2586

 -------------------------------------------------------------------------------
                             SWR1 OUTPUT PRINT TIMES
                        STRESS PERIOD   25   TIME STEP  2586
 --------------- --------------- --------------- --------------- ---------------
     0.39672E+06                                                                
 -------------------------------------------------------------------------------
 
 SOLVING FOR HEAD 
 INITIAL HNEW IS AN EXACT SOLUTION.

 NO OUTPUT CONTROL FOR STRESS PERIOD   25   TIME STEP 2587

 -------------------------------------------------------------------------------
                             SWR1 OUTPUT PRINT TIMES
                        STRESS PERIOD   25   TIME STEP  2587
 --------------- --------------- --------------- --------------- ---------------
     0.39684E+06                                                                
 -------------------------------------------------------------------------------
 
 SOLVING FOR HEAD 
 INITIAL HNEW IS AN EXACT SOLUTION.

 NO OUTPUT CONTROL FOR STRESS PERIOD   25   TIME STEP 2588

 -------------------------------------------------------------------------------
                             SWR1 OUTPUT PRINT TIMES
                        STRESS PERIOD   25   TIME STEP  2588
 --------------- --------------- --------------- --------------- ---------------
     0.39696E+06                                                                
 -------------------------------------------------------------------------------
 
 SOLVING FOR HEAD 
 INITIAL HNEW IS AN EXACT SOLUTION.

 NO OUTPUT CONTROL FOR STRESS PERIOD   25   TIME STEP 2589

 -------------------------------------------------------------------------------
                             SWR1 OUTPUT PRINT TIMES
                        STRESS PERIOD   25   TIME STEP  2589
 --------------- --------------- --------------- --------------- ---------------
     0.39708E+06                                                                
 -------------------------------------------------------------------------------
 
 SOLVING FOR HEAD 
 INITIAL HNEW IS AN EXACT SOLUTION.

 NO OUTPUT CONTROL FOR STRESS PERIOD   25   TIME STEP 2590

 -------------------------------------------------------------------------------
                             SWR1 OUTPUT PRINT TIMES
                        STRESS PERIOD   25   TIME STEP  2590
 --------------- --------------- --------------- --------------- ---------------
     0.39720E+06                                                                
 -------------------------------------------------------------------------------
 
 SOLVING FOR HEAD 
 INITIAL HNEW IS AN EXACT SOLUTION.

 NO OUTPUT CONTROL FOR STRESS PERIOD   25   TIME STEP 2591

 -------------------------------------------------------------------------------
                             SWR1 OUTPUT PRINT TIMES
                        STRESS PERIOD   25   TIME STEP  2591
 --------------- --------------- --------------- --------------- ---------------
     0.39732E+06                                                                
 -------------------------------------------------------------------------------
 
 SOLVING FOR HEAD 
 INITIAL HNEW IS AN EXACT SOLUTION.

 NO OUTPUT CONTROL FOR STRESS PERIOD   25   TIME STEP 2592

 -------------------------------------------------------------------------------
                             SWR1 OUTPUT PRINT TIMES
                        STRESS PERIOD   25   TIME STEP  2592
 --------------- --------------- --------------- --------------- ---------------
     0.39744E+06                                                                
 -------------------------------------------------------------------------------
 
 SOLVING FOR HEAD 
 INITIAL HNEW IS AN EXACT SOLUTION.

 NO OUTPUT CONTROL FOR STRESS PERIOD   25   TIME STEP 2593

 -------------------------------------------------------------------------------
                             SWR1 OUTPUT PRINT TIMES
                        STRESS PERIOD   25   TIME STEP  2593
 --------------- --------------- --------------- --------------- ---------------
     0.39756E+06                                                                
 -------------------------------------------------------------------------------
 
 SOLVING FOR HEAD 
 INITIAL HNEW IS AN EXACT SOLUTION.

 NO OUTPUT CONTROL FOR STRESS PERIOD   25   TIME STEP 2594

 -------------------------------------------------------------------------------
                             SWR1 OUTPUT PRINT TIMES
                        STRESS PERIOD   25   TIME STEP  2594
 --------------- --------------- --------------- --------------- ---------------
     0.39768E+06                                                                
 -------------------------------------------------------------------------------
 
 SOLVING FOR HEAD 
 INITIAL HNEW IS AN EXACT SOLUTION.

 NO OUTPUT CONTROL FOR STRESS PERIOD   25   TIME STEP 2595

 -------------------------------------------------------------------------------
                             SWR1 OUTPUT PRINT TIMES
                        STRESS PERIOD   25   TIME STEP  2595
 --------------- --------------- --------------- --------------- ---------------
     0.39780E+06                                                                
 -------------------------------------------------------------------------------
 
 SOLVING FOR HEAD 
 INITIAL HNEW IS AN EXACT SOLUTION.

 NO OUTPUT CONTROL FOR STRESS PERIOD   25   TIME STEP 2596

 -------------------------------------------------------------------------------
                             SWR1 OUTPUT PRINT TIMES
                        STRESS PERIOD   25   TIME STEP  2596
 --------------- --------------- --------------- --------------- ---------------
     0.39792E+06                                                                
 -------------------------------------------------------------------------------
 
 SOLVING FOR HEAD 
 INITIAL HNEW IS AN EXACT SOLUTION.

 NO OUTPUT CONTROL FOR STRESS PERIOD   25   TIME STEP 2597

 -------------------------------------------------------------------------------
                             SWR1 OUTPUT PRINT TIMES
                        STRESS PERIOD   25   TIME STEP  2597
 --------------- --------------- --------------- --------------- ---------------
     0.39804E+06                                                                
 -------------------------------------------------------------------------------
 
 SOLVING FOR HEAD 
 INITIAL HNEW IS AN EXACT SOLUTION.

 NO OUTPUT CONTROL FOR STRESS PERIOD   25   TIME STEP 2598

 -------------------------------------------------------------------------------
                             SWR1 OUTPUT PRINT TIMES
                        STRESS PERIOD   25   TIME STEP  2598
 --------------- --------------- --------------- --------------- ---------------
     0.39816E+06                                                                
 -------------------------------------------------------------------------------
 
 SOLVING FOR HEAD 
 INITIAL HNEW IS AN EXACT SOLUTION.

 NO OUTPUT CONTROL FOR STRESS PERIOD   25   TIME STEP 2599

 -------------------------------------------------------------------------------
                             SWR1 OUTPUT PRINT TIMES
                        STRESS PERIOD   25   TIME STEP  2599
 --------------- --------------- --------------- --------------- ---------------
     0.39828E+06                                                                
 -------------------------------------------------------------------------------
 
 SOLVING FOR HEAD 
 INITIAL HNEW IS AN EXACT SOLUTION.

 NO OUTPUT CONTROL FOR STRESS PERIOD   25   TIME STEP 2600

 -------------------------------------------------------------------------------
                             SWR1 OUTPUT PRINT TIMES
                        STRESS PERIOD   25   TIME STEP  2600
 --------------- --------------- --------------- --------------- ---------------
     0.39840E+06                                                                
 -------------------------------------------------------------------------------
 
 SOLVING FOR HEAD 
 INITIAL HNEW IS AN EXACT SOLUTION.

 NO OUTPUT CONTROL FOR STRESS PERIOD   25   TIME STEP 2601

 -------------------------------------------------------------------------------
                             SWR1 OUTPUT PRINT TIMES
                        STRESS PERIOD   25   TIME STEP  2601
 --------------- --------------- --------------- --------------- ---------------
     0.39852E+06                                                                
 -------------------------------------------------------------------------------
 
 SOLVING FOR HEAD 
 INITIAL HNEW IS AN EXACT SOLUTION.

 NO OUTPUT CONTROL FOR STRESS PERIOD   25   TIME STEP 2602

 -------------------------------------------------------------------------------
                             SWR1 OUTPUT PRINT TIMES
                        STRESS PERIOD   25   TIME STEP  2602
 --------------- --------------- --------------- --------------- ---------------
     0.39864E+06                                                                
 -------------------------------------------------------------------------------
 
 SOLVING FOR HEAD 
 INITIAL HNEW IS AN EXACT SOLUTION.

 NO OUTPUT CONTROL FOR STRESS PERIOD   25   TIME STEP 2603

 -------------------------------------------------------------------------------
                             SWR1 OUTPUT PRINT TIMES
                        STRESS PERIOD   25   TIME STEP  2603
 --------------- --------------- --------------- --------------- ---------------
     0.39876E+06                                                                
 -------------------------------------------------------------------------------
 
 SOLVING FOR HEAD 
 INITIAL HNEW IS AN EXACT SOLUTION.

 NO OUTPUT CONTROL FOR STRESS PERIOD   25   TIME STEP 2604

 -------------------------------------------------------------------------------
                             SWR1 OUTPUT PRINT TIMES
                        STRESS PERIOD   25   TIME STEP  2604
 --------------- --------------- --------------- --------------- ---------------
     0.39888E+06                                                                
 -------------------------------------------------------------------------------
 
 SOLVING FOR HEAD 
 INITIAL HNEW IS AN EXACT SOLUTION.

 NO OUTPUT CONTROL FOR STRESS PERIOD   25   TIME STEP 2605

 -------------------------------------------------------------------------------
                             SWR1 OUTPUT PRINT TIMES
                        STRESS PERIOD   25   TIME STEP  2605
 --------------- --------------- --------------- --------------- ---------------
     0.39900E+06                                                                
 -------------------------------------------------------------------------------
 
 SOLVING FOR HEAD 
 INITIAL HNEW IS AN EXACT SOLUTION.

 NO OUTPUT CONTROL FOR STRESS PERIOD   25   TIME STEP 2606

 -------------------------------------------------------------------------------
                             SWR1 OUTPUT PRINT TIMES
                        STRESS PERIOD   25   TIME STEP  2606
 --------------- --------------- --------------- --------------- ---------------
     0.39912E+06                                                                
 -------------------------------------------------------------------------------
 
 SOLVING FOR HEAD 
 INITIAL HNEW IS AN EXACT SOLUTION.

 NO OUTPUT CONTROL FOR STRESS PERIOD   25   TIME STEP 2607

 -------------------------------------------------------------------------------
                             SWR1 OUTPUT PRINT TIMES
                        STRESS PERIOD   25   TIME STEP  2607
 --------------- --------------- --------------- --------------- ---------------
     0.39924E+06                                                                
 -------------------------------------------------------------------------------
 
 SOLVING FOR HEAD 
 INITIAL HNEW IS AN EXACT SOLUTION.

 NO OUTPUT CONTROL FOR STRESS PERIOD   25   TIME STEP 2608

 -------------------------------------------------------------------------------
                             SWR1 OUTPUT PRINT TIMES
                        STRESS PERIOD   25   TIME STEP  2608
 --------------- --------------- --------------- --------------- ---------------
     0.39936E+06                                                                
 -------------------------------------------------------------------------------
 
 SOLVING FOR HEAD 
 INITIAL HNEW IS AN EXACT SOLUTION.

 NO OUTPUT CONTROL FOR STRESS PERIOD   25   TIME STEP 2609

 -------------------------------------------------------------------------------
                             SWR1 OUTPUT PRINT TIMES
                        STRESS PERIOD   25   TIME STEP  2609
 --------------- --------------- --------------- --------------- ---------------
     0.39948E+06                                                                
 -------------------------------------------------------------------------------
 
 SOLVING FOR HEAD 
 INITIAL HNEW IS AN EXACT SOLUTION.

 NO OUTPUT CONTROL FOR STRESS PERIOD   25   TIME STEP 2610

 -------------------------------------------------------------------------------
                             SWR1 OUTPUT PRINT TIMES
                        STRESS PERIOD   25   TIME STEP  2610
 --------------- --------------- --------------- --------------- ---------------
     0.39960E+06                                                                
 -------------------------------------------------------------------------------
 
 SOLVING FOR HEAD 
 INITIAL HNEW IS AN EXACT SOLUTION.

 NO OUTPUT CONTROL FOR STRESS PERIOD   25   TIME STEP 2611

 -------------------------------------------------------------------------------
                             SWR1 OUTPUT PRINT TIMES
                        STRESS PERIOD   25   TIME STEP  2611
 --------------- --------------- --------------- --------------- ---------------
     0.39972E+06                                                                
 -------------------------------------------------------------------------------
 
 SOLVING FOR HEAD 
 INITIAL HNEW IS AN EXACT SOLUTION.

 NO OUTPUT CONTROL FOR STRESS PERIOD   25   TIME STEP 2612

 -------------------------------------------------------------------------------
                             SWR1 OUTPUT PRINT TIMES
                        STRESS PERIOD   25   TIME STEP  2612
 --------------- --------------- --------------- --------------- ---------------
     0.39984E+06                                                                
 -------------------------------------------------------------------------------
 
 SOLVING FOR HEAD 
 INITIAL HNEW IS AN EXACT SOLUTION.

 NO OUTPUT CONTROL FOR STRESS PERIOD   25   TIME STEP 2613

 -------------------------------------------------------------------------------
                             SWR1 OUTPUT PRINT TIMES
                        STRESS PERIOD   25   TIME STEP  2613
 --------------- --------------- --------------- --------------- ---------------
     0.39996E+06                                                                
 -------------------------------------------------------------------------------
 
 SOLVING FOR HEAD 
 INITIAL HNEW IS AN EXACT SOLUTION.

 NO OUTPUT CONTROL FOR STRESS PERIOD   25   TIME STEP 2614

 -------------------------------------------------------------------------------
                             SWR1 OUTPUT PRINT TIMES
                        STRESS PERIOD   25   TIME STEP  2614
 --------------- --------------- --------------- --------------- ---------------
     0.40008E+06                                                                
 -------------------------------------------------------------------------------
 
 SOLVING FOR HEAD 
 INITIAL HNEW IS AN EXACT SOLUTION.

 NO OUTPUT CONTROL FOR STRESS PERIOD   25   TIME STEP 2615

 -------------------------------------------------------------------------------
                             SWR1 OUTPUT PRINT TIMES
                        STRESS PERIOD   25   TIME STEP  2615
 --------------- --------------- --------------- --------------- ---------------
     0.40020E+06                                                                
 -------------------------------------------------------------------------------
 
 SOLVING FOR HEAD 
 INITIAL HNEW IS AN EXACT SOLUTION.

 NO OUTPUT CONTROL FOR STRESS PERIOD   25   TIME STEP 2616

 -------------------------------------------------------------------------------
                             SWR1 OUTPUT PRINT TIMES
                        STRESS PERIOD   25   TIME STEP  2616
 --------------- --------------- --------------- --------------- ---------------
     0.40032E+06                                                                
 -------------------------------------------------------------------------------
 
 SOLVING FOR HEAD 
 INITIAL HNEW IS AN EXACT SOLUTION.

 NO OUTPUT CONTROL FOR STRESS PERIOD   25   TIME STEP 2617

 -------------------------------------------------------------------------------
                             SWR1 OUTPUT PRINT TIMES
                        STRESS PERIOD   25   TIME STEP  2617
 --------------- --------------- --------------- --------------- ---------------
     0.40044E+06                                                                
 -------------------------------------------------------------------------------
 
 SOLVING FOR HEAD 
 INITIAL HNEW IS AN EXACT SOLUTION.

 NO OUTPUT CONTROL FOR STRESS PERIOD   25   TIME STEP 2618

 -------------------------------------------------------------------------------
                             SWR1 OUTPUT PRINT TIMES
                        STRESS PERIOD   25   TIME STEP  2618
 --------------- --------------- --------------- --------------- ---------------
     0.40056E+06                                                                
 -------------------------------------------------------------------------------
 
 SOLVING FOR HEAD 
 INITIAL HNEW IS AN EXACT SOLUTION.

 NO OUTPUT CONTROL FOR STRESS PERIOD   25   TIME STEP 2619

 -------------------------------------------------------------------------------
                             SWR1 OUTPUT PRINT TIMES
                        STRESS PERIOD   25   TIME STEP  2619
 --------------- --------------- --------------- --------------- ---------------
     0.40068E+06                                                                
 -------------------------------------------------------------------------------
 
 SOLVING FOR HEAD 
 INITIAL HNEW IS AN EXACT SOLUTION.

 NO OUTPUT CONTROL FOR STRESS PERIOD   25   TIME STEP 2620

 -------------------------------------------------------------------------------
                             SWR1 OUTPUT PRINT TIMES
                        STRESS PERIOD   25   TIME STEP  2620
 --------------- --------------- --------------- --------------- ---------------
     0.40080E+06                                                                
 -------------------------------------------------------------------------------
 
 SOLVING FOR HEAD 
 INITIAL HNEW IS AN EXACT SOLUTION.

 NO OUTPUT CONTROL FOR STRESS PERIOD   25   TIME STEP 2621

 -------------------------------------------------------------------------------
                             SWR1 OUTPUT PRINT TIMES
                        STRESS PERIOD   25   TIME STEP  2621
 --------------- --------------- --------------- --------------- ---------------
     0.40092E+06                                                                
 -------------------------------------------------------------------------------
 
 SOLVING FOR HEAD 
 INITIAL HNEW IS AN EXACT SOLUTION.

 NO OUTPUT CONTROL FOR STRESS PERIOD   25   TIME STEP 2622

 -------------------------------------------------------------------------------
                             SWR1 OUTPUT PRINT TIMES
                        STRESS PERIOD   25   TIME STEP  2622
 --------------- --------------- --------------- --------------- ---------------
     0.40104E+06                                                                
 -------------------------------------------------------------------------------
 
 SOLVING FOR HEAD 
 INITIAL HNEW IS AN EXACT SOLUTION.

 NO OUTPUT CONTROL FOR STRESS PERIOD   25   TIME STEP 2623

 -------------------------------------------------------------------------------
                             SWR1 OUTPUT PRINT TIMES
                        STRESS PERIOD   25   TIME STEP  2623
 --------------- --------------- --------------- --------------- ---------------
     0.40116E+06                                                                
 -------------------------------------------------------------------------------
 
 SOLVING FOR HEAD 
 INITIAL HNEW IS AN EXACT SOLUTION.

 NO OUTPUT CONTROL FOR STRESS PERIOD   25   TIME STEP 2624

 -------------------------------------------------------------------------------
                             SWR1 OUTPUT PRINT TIMES
                        STRESS PERIOD   25   TIME STEP  2624
 --------------- --------------- --------------- --------------- ---------------
     0.40128E+06                                                                
 -------------------------------------------------------------------------------
 
 SOLVING FOR HEAD 
 INITIAL HNEW IS AN EXACT SOLUTION.

 NO OUTPUT CONTROL FOR STRESS PERIOD   25   TIME STEP 2625

 -------------------------------------------------------------------------------
                             SWR1 OUTPUT PRINT TIMES
                        STRESS PERIOD   25   TIME STEP  2625
 --------------- --------------- --------------- --------------- ---------------
     0.40140E+06                                                                
 -------------------------------------------------------------------------------
 
 SOLVING FOR HEAD 
 INITIAL HNEW IS AN EXACT SOLUTION.

 NO OUTPUT CONTROL FOR STRESS PERIOD   25   TIME STEP 2626

 -------------------------------------------------------------------------------
                             SWR1 OUTPUT PRINT TIMES
                        STRESS PERIOD   25   TIME STEP  2626
 --------------- --------------- --------------- --------------- ---------------
     0.40152E+06                                                                
 -------------------------------------------------------------------------------
 
 SOLVING FOR HEAD 
 INITIAL HNEW IS AN EXACT SOLUTION.

 NO OUTPUT CONTROL FOR STRESS PERIOD   25   TIME STEP 2627

 -------------------------------------------------------------------------------
                             SWR1 OUTPUT PRINT TIMES
                        STRESS PERIOD   25   TIME STEP  2627
 --------------- --------------- --------------- --------------- ---------------
     0.40164E+06                                                                
 -------------------------------------------------------------------------------
 
 SOLVING FOR HEAD 
 INITIAL HNEW IS AN EXACT SOLUTION.

 NO OUTPUT CONTROL FOR STRESS PERIOD   25   TIME STEP 2628

 -------------------------------------------------------------------------------
                             SWR1 OUTPUT PRINT TIMES
                        STRESS PERIOD   25   TIME STEP  2628
 --------------- --------------- --------------- --------------- ---------------
     0.40176E+06                                                                
 -------------------------------------------------------------------------------
 
 SOLVING FOR HEAD 
 INITIAL HNEW IS AN EXACT SOLUTION.

 NO OUTPUT CONTROL FOR STRESS PERIOD   25   TIME STEP 2629

 -------------------------------------------------------------------------------
                             SWR1 OUTPUT PRINT TIMES
                        STRESS PERIOD   25   TIME STEP  2629
 --------------- --------------- --------------- --------------- ---------------
     0.40188E+06                                                                
 -------------------------------------------------------------------------------
 
 SOLVING FOR HEAD 
 INITIAL HNEW IS AN EXACT SOLUTION.

 NO OUTPUT CONTROL FOR STRESS PERIOD   25   TIME STEP 2630

 -------------------------------------------------------------------------------
                             SWR1 OUTPUT PRINT TIMES
                        STRESS PERIOD   25   TIME STEP  2630
 --------------- --------------- --------------- --------------- ---------------
     0.40200E+06                                                                
 -------------------------------------------------------------------------------
 
 SOLVING FOR HEAD 
 INITIAL HNEW IS AN EXACT SOLUTION.

 NO OUTPUT CONTROL FOR STRESS PERIOD   25   TIME STEP 2631

 -------------------------------------------------------------------------------
                             SWR1 OUTPUT PRINT TIMES
                        STRESS PERIOD   25   TIME STEP  2631
 --------------- --------------- --------------- --------------- ---------------
     0.40212E+06                                                                
 -------------------------------------------------------------------------------
 
 SOLVING FOR HEAD 
 INITIAL HNEW IS AN EXACT SOLUTION.

 NO OUTPUT CONTROL FOR STRESS PERIOD   25   TIME STEP 2632

 -------------------------------------------------------------------------------
                             SWR1 OUTPUT PRINT TIMES
                        STRESS PERIOD   25   TIME STEP  2632
 --------------- --------------- --------------- --------------- ---------------
     0.40224E+06                                                                
 -------------------------------------------------------------------------------
 
 SOLVING FOR HEAD 
 INITIAL HNEW IS AN EXACT SOLUTION.

 NO OUTPUT CONTROL FOR STRESS PERIOD   25   TIME STEP 2633

 -------------------------------------------------------------------------------
                             SWR1 OUTPUT PRINT TIMES
                        STRESS PERIOD   25   TIME STEP  2633
 --------------- --------------- --------------- --------------- ---------------
     0.40236E+06                                                                
 -------------------------------------------------------------------------------
 
 SOLVING FOR HEAD 
 INITIAL HNEW IS AN EXACT SOLUTION.

 NO OUTPUT CONTROL FOR STRESS PERIOD   25   TIME STEP 2634

 -------------------------------------------------------------------------------
                             SWR1 OUTPUT PRINT TIMES
                        STRESS PERIOD   25   TIME STEP  2634
 --------------- --------------- --------------- --------------- ---------------
     0.40248E+06                                                                
 -------------------------------------------------------------------------------
 
 SOLVING FOR HEAD 
 INITIAL HNEW IS AN EXACT SOLUTION.

 NO OUTPUT CONTROL FOR STRESS PERIOD   25   TIME STEP 2635

 -------------------------------------------------------------------------------
                             SWR1 OUTPUT PRINT TIMES
                        STRESS PERIOD   25   TIME STEP  2635
 --------------- --------------- --------------- --------------- ---------------
     0.40260E+06                                                                
 -------------------------------------------------------------------------------
 
 SOLVING FOR HEAD 
 INITIAL HNEW IS AN EXACT SOLUTION.

 NO OUTPUT CONTROL FOR STRESS PERIOD   25   TIME STEP 2636

 -------------------------------------------------------------------------------
                             SWR1 OUTPUT PRINT TIMES
                        STRESS PERIOD   25   TIME STEP  2636
 --------------- --------------- --------------- --------------- ---------------
     0.40272E+06                                                                
 -------------------------------------------------------------------------------
 
 SOLVING FOR HEAD 
 INITIAL HNEW IS AN EXACT SOLUTION.

 NO OUTPUT CONTROL FOR STRESS PERIOD   25   TIME STEP 2637

 -------------------------------------------------------------------------------
                             SWR1 OUTPUT PRINT TIMES
                        STRESS PERIOD   25   TIME STEP  2637
 --------------- --------------- --------------- --------------- ---------------
     0.40284E+06                                                                
 -------------------------------------------------------------------------------
 
 SOLVING FOR HEAD 
 INITIAL HNEW IS AN EXACT SOLUTION.

 NO OUTPUT CONTROL FOR STRESS PERIOD   25   TIME STEP 2638

 -------------------------------------------------------------------------------
                             SWR1 OUTPUT PRINT TIMES
                        STRESS PERIOD   25   TIME STEP  2638
 --------------- --------------- --------------- --------------- ---------------
     0.40296E+06                                                                
 -------------------------------------------------------------------------------
 
 SOLVING FOR HEAD 
 INITIAL HNEW IS AN EXACT SOLUTION.

 NO OUTPUT CONTROL FOR STRESS PERIOD   25   TIME STEP 2639

 -------------------------------------------------------------------------------
                             SWR1 OUTPUT PRINT TIMES
                        STRESS PERIOD   25   TIME STEP  2639
 --------------- --------------- --------------- --------------- ---------------
     0.40308E+06                                                                
 -------------------------------------------------------------------------------
 
 SOLVING FOR HEAD 
 INITIAL HNEW IS AN EXACT SOLUTION.

 NO OUTPUT CONTROL FOR STRESS PERIOD   25   TIME STEP 2640

 -------------------------------------------------------------------------------
                             SWR1 OUTPUT PRINT TIMES
                        STRESS PERIOD   25   TIME STEP  2640
 --------------- --------------- --------------- --------------- ---------------
     0.40320E+06                                                                
 -------------------------------------------------------------------------------
 
 SOLVING FOR HEAD 
 INITIAL HNEW IS AN EXACT SOLUTION.

 NO OUTPUT CONTROL FOR STRESS PERIOD   25   TIME STEP 2641

 -------------------------------------------------------------------------------
                             SWR1 OUTPUT PRINT TIMES
                        STRESS PERIOD   25   TIME STEP  2641
 --------------- --------------- --------------- --------------- ---------------
     0.40332E+06                                                                
 -------------------------------------------------------------------------------
 
 SOLVING FOR HEAD 
 INITIAL HNEW IS AN EXACT SOLUTION.

 NO OUTPUT CONTROL FOR STRESS PERIOD   25   TIME STEP 2642

 -------------------------------------------------------------------------------
                             SWR1 OUTPUT PRINT TIMES
                        STRESS PERIOD   25   TIME STEP  2642
 --------------- --------------- --------------- --------------- ---------------
     0.40344E+06                                                                
 -------------------------------------------------------------------------------
 
 SOLVING FOR HEAD 
 INITIAL HNEW IS AN EXACT SOLUTION.

 NO OUTPUT CONTROL FOR STRESS PERIOD   25   TIME STEP 2643

 -------------------------------------------------------------------------------
                             SWR1 OUTPUT PRINT TIMES
                        STRESS PERIOD   25   TIME STEP  2643
 --------------- --------------- --------------- --------------- ---------------
     0.40356E+06                                                                
 -------------------------------------------------------------------------------
 
 SOLVING FOR HEAD 
 INITIAL HNEW IS AN EXACT SOLUTION.

 NO OUTPUT CONTROL FOR STRESS PERIOD   25   TIME STEP 2644

 -------------------------------------------------------------------------------
                             SWR1 OUTPUT PRINT TIMES
                        STRESS PERIOD   25   TIME STEP  2644
 --------------- --------------- --------------- --------------- ---------------
     0.40368E+06                                                                
 -------------------------------------------------------------------------------
 
 SOLVING FOR HEAD 
 INITIAL HNEW IS AN EXACT SOLUTION.

 NO OUTPUT CONTROL FOR STRESS PERIOD   25   TIME STEP 2645

 -------------------------------------------------------------------------------
                             SWR1 OUTPUT PRINT TIMES
                        STRESS PERIOD   25   TIME STEP  2645
 --------------- --------------- --------------- --------------- ---------------
     0.40380E+06                                                                
 -------------------------------------------------------------------------------
 
 SOLVING FOR HEAD 
 INITIAL HNEW IS AN EXACT SOLUTION.

 NO OUTPUT CONTROL FOR STRESS PERIOD   25   TIME STEP 2646

 -------------------------------------------------------------------------------
                             SWR1 OUTPUT PRINT TIMES
                        STRESS PERIOD   25   TIME STEP  2646
 --------------- --------------- --------------- --------------- ---------------
     0.40392E+06                                                                
 -------------------------------------------------------------------------------
 
 SOLVING FOR HEAD 
 INITIAL HNEW IS AN EXACT SOLUTION.

 NO OUTPUT CONTROL FOR STRESS PERIOD   25   TIME STEP 2647

 -------------------------------------------------------------------------------
                             SWR1 OUTPUT PRINT TIMES
                        STRESS PERIOD   25   TIME STEP  2647
 --------------- --------------- --------------- --------------- ---------------
     0.40404E+06                                                                
 -------------------------------------------------------------------------------
 
 SOLVING FOR HEAD 
 INITIAL HNEW IS AN EXACT SOLUTION.

 NO OUTPUT CONTROL FOR STRESS PERIOD   25   TIME STEP 2648

 -------------------------------------------------------------------------------
                             SWR1 OUTPUT PRINT TIMES
                        STRESS PERIOD   25   TIME STEP  2648
 --------------- --------------- --------------- --------------- ---------------
     0.40416E+06                                                                
 -------------------------------------------------------------------------------
 
 SOLVING FOR HEAD 
 INITIAL HNEW IS AN EXACT SOLUTION.

 NO OUTPUT CONTROL FOR STRESS PERIOD   25   TIME STEP 2649

 -------------------------------------------------------------------------------
                             SWR1 OUTPUT PRINT TIMES
                        STRESS PERIOD   25   TIME STEP  2649
 --------------- --------------- --------------- --------------- ---------------
     0.40428E+06                                                                
 -------------------------------------------------------------------------------
 
 SOLVING FOR HEAD 
 INITIAL HNEW IS AN EXACT SOLUTION.

 NO OUTPUT CONTROL FOR STRESS PERIOD   25   TIME STEP 2650

 -------------------------------------------------------------------------------
                             SWR1 OUTPUT PRINT TIMES
                        STRESS PERIOD   25   TIME STEP  2650
 --------------- --------------- --------------- --------------- ---------------
     0.40440E+06                                                                
 -------------------------------------------------------------------------------
 
 SOLVING FOR HEAD 
 INITIAL HNEW IS AN EXACT SOLUTION.

 NO OUTPUT CONTROL FOR STRESS PERIOD   25   TIME STEP 2651

 -------------------------------------------------------------------------------
                             SWR1 OUTPUT PRINT TIMES
                        STRESS PERIOD   25   TIME STEP  2651
 --------------- --------------- --------------- --------------- ---------------
     0.40452E+06                                                                
 -------------------------------------------------------------------------------
 
 SOLVING FOR HEAD 
 INITIAL HNEW IS AN EXACT SOLUTION.

 NO OUTPUT CONTROL FOR STRESS PERIOD   25   TIME STEP 2652

 -------------------------------------------------------------------------------
                             SWR1 OUTPUT PRINT TIMES
                        STRESS PERIOD   25   TIME STEP  2652
 --------------- --------------- --------------- --------------- ---------------
     0.40464E+06                                                                
 -------------------------------------------------------------------------------
 
 SOLVING FOR HEAD 
 INITIAL HNEW IS AN EXACT SOLUTION.

 NO OUTPUT CONTROL FOR STRESS PERIOD   25   TIME STEP 2653

 -------------------------------------------------------------------------------
                             SWR1 OUTPUT PRINT TIMES
                        STRESS PERIOD   25   TIME STEP  2653
 --------------- --------------- --------------- --------------- ---------------
     0.40476E+06                                                                
 -------------------------------------------------------------------------------
 
 SOLVING FOR HEAD 
 INITIAL HNEW IS AN EXACT SOLUTION.

 NO OUTPUT CONTROL FOR STRESS PERIOD   25   TIME STEP 2654

 -------------------------------------------------------------------------------
                             SWR1 OUTPUT PRINT TIMES
                        STRESS PERIOD   25   TIME STEP  2654
 --------------- --------------- --------------- --------------- ---------------
     0.40488E+06                                                                
 -------------------------------------------------------------------------------
 
 SOLVING FOR HEAD 
 INITIAL HNEW IS AN EXACT SOLUTION.

 NO OUTPUT CONTROL FOR STRESS PERIOD   25   TIME STEP 2655

 -------------------------------------------------------------------------------
                             SWR1 OUTPUT PRINT TIMES
                        STRESS PERIOD   25   TIME STEP  2655
 --------------- --------------- --------------- --------------- ---------------
     0.40500E+06                                                                
 -------------------------------------------------------------------------------
 
 SOLVING FOR HEAD 
 INITIAL HNEW IS AN EXACT SOLUTION.

 NO OUTPUT CONTROL FOR STRESS PERIOD   25   TIME STEP 2656

 -------------------------------------------------------------------------------
                             SWR1 OUTPUT PRINT TIMES
                        STRESS PERIOD   25   TIME STEP  2656
 --------------- --------------- --------------- --------------- ---------------
     0.40512E+06                                                                
 -------------------------------------------------------------------------------
 
 SOLVING FOR HEAD 
 INITIAL HNEW IS AN EXACT SOLUTION.

 NO OUTPUT CONTROL FOR STRESS PERIOD   25   TIME STEP 2657

 -------------------------------------------------------------------------------
                             SWR1 OUTPUT PRINT TIMES
                        STRESS PERIOD   25   TIME STEP  2657
 --------------- --------------- --------------- --------------- ---------------
     0.40524E+06                                                                
 -------------------------------------------------------------------------------
 
 SOLVING FOR HEAD 
 INITIAL HNEW IS AN EXACT SOLUTION.

 NO OUTPUT CONTROL FOR STRESS PERIOD   25   TIME STEP 2658

 -------------------------------------------------------------------------------
                             SWR1 OUTPUT PRINT TIMES
                        STRESS PERIOD   25   TIME STEP  2658
 --------------- --------------- --------------- --------------- ---------------
     0.40536E+06                                                                
 -------------------------------------------------------------------------------
 
 SOLVING FOR HEAD 
 INITIAL HNEW IS AN EXACT SOLUTION.

 NO OUTPUT CONTROL FOR STRESS PERIOD   25   TIME STEP 2659

 -------------------------------------------------------------------------------
                             SWR1 OUTPUT PRINT TIMES
                        STRESS PERIOD   25   TIME STEP  2659
 --------------- --------------- --------------- --------------- ---------------
     0.40548E+06                                                                
 -------------------------------------------------------------------------------
 
 SOLVING FOR HEAD 
 INITIAL HNEW IS AN EXACT SOLUTION.

 NO OUTPUT CONTROL FOR STRESS PERIOD   25   TIME STEP 2660

 -------------------------------------------------------------------------------
                             SWR1 OUTPUT PRINT TIMES
                        STRESS PERIOD   25   TIME STEP  2660
 --------------- --------------- --------------- --------------- ---------------
     0.40560E+06                                                                
 -------------------------------------------------------------------------------
 
 SOLVING FOR HEAD 
 INITIAL HNEW IS AN EXACT SOLUTION.

 NO OUTPUT CONTROL FOR STRESS PERIOD   25   TIME STEP 2661

 -------------------------------------------------------------------------------
                             SWR1 OUTPUT PRINT TIMES
                        STRESS PERIOD   25   TIME STEP  2661
 --------------- --------------- --------------- --------------- ---------------
     0.40572E+06                                                                
 -------------------------------------------------------------------------------
 
 SOLVING FOR HEAD 
 INITIAL HNEW IS AN EXACT SOLUTION.

 NO OUTPUT CONTROL FOR STRESS PERIOD   25   TIME STEP 2662

 -------------------------------------------------------------------------------
                             SWR1 OUTPUT PRINT TIMES
                        STRESS PERIOD   25   TIME STEP  2662
 --------------- --------------- --------------- --------------- ---------------
     0.40584E+06                                                                
 -------------------------------------------------------------------------------
 
 SOLVING FOR HEAD 
 INITIAL HNEW IS AN EXACT SOLUTION.

 NO OUTPUT CONTROL FOR STRESS PERIOD   25   TIME STEP 2663

 -------------------------------------------------------------------------------
                             SWR1 OUTPUT PRINT TIMES
                        STRESS PERIOD   25   TIME STEP  2663
 --------------- --------------- --------------- --------------- ---------------
     0.40596E+06                                                                
 -------------------------------------------------------------------------------
 
 SOLVING FOR HEAD 
 INITIAL HNEW IS AN EXACT SOLUTION.

 NO OUTPUT CONTROL FOR STRESS PERIOD   25   TIME STEP 2664

 -------------------------------------------------------------------------------
                             SWR1 OUTPUT PRINT TIMES
                        STRESS PERIOD   25   TIME STEP  2664
 --------------- --------------- --------------- --------------- ---------------
     0.40608E+06                                                                
 -------------------------------------------------------------------------------
 
 SOLVING FOR HEAD 
 INITIAL HNEW IS AN EXACT SOLUTION.

 NO OUTPUT CONTROL FOR STRESS PERIOD   25   TIME STEP 2665

 -------------------------------------------------------------------------------
                             SWR1 OUTPUT PRINT TIMES
                        STRESS PERIOD   25   TIME STEP  2665
 --------------- --------------- --------------- --------------- ---------------
     0.40620E+06                                                                
 -------------------------------------------------------------------------------
 
 SOLVING FOR HEAD 
 INITIAL HNEW IS AN EXACT SOLUTION.

 NO OUTPUT CONTROL FOR STRESS PERIOD   25   TIME STEP 2666

 -------------------------------------------------------------------------------
                             SWR1 OUTPUT PRINT TIMES
                        STRESS PERIOD   25   TIME STEP  2666
 --------------- --------------- --------------- --------------- ---------------
     0.40632E+06                                                                
 -------------------------------------------------------------------------------
 
 SOLVING FOR HEAD 
 INITIAL HNEW IS AN EXACT SOLUTION.

 NO OUTPUT CONTROL FOR STRESS PERIOD   25   TIME STEP 2667

 -------------------------------------------------------------------------------
                             SWR1 OUTPUT PRINT TIMES
                        STRESS PERIOD   25   TIME STEP  2667
 --------------- --------------- --------------- --------------- ---------------
     0.40644E+06                                                                
 -------------------------------------------------------------------------------
 
 SOLVING FOR HEAD 
 INITIAL HNEW IS AN EXACT SOLUTION.

 NO OUTPUT CONTROL FOR STRESS PERIOD   25   TIME STEP 2668

 -------------------------------------------------------------------------------
                             SWR1 OUTPUT PRINT TIMES
                        STRESS PERIOD   25   TIME STEP  2668
 --------------- --------------- --------------- --------------- ---------------
     0.40656E+06                                                                
 -------------------------------------------------------------------------------
 
 SOLVING FOR HEAD 
 INITIAL HNEW IS AN EXACT SOLUTION.

 NO OUTPUT CONTROL FOR STRESS PERIOD   25   TIME STEP 2669

 -------------------------------------------------------------------------------
                             SWR1 OUTPUT PRINT TIMES
                        STRESS PERIOD   25   TIME STEP  2669
 --------------- --------------- --------------- --------------- ---------------
     0.40668E+06                                                                
 -------------------------------------------------------------------------------
 
 SOLVING FOR HEAD 
 INITIAL HNEW IS AN EXACT SOLUTION.

 NO OUTPUT CONTROL FOR STRESS PERIOD   25   TIME STEP 2670

 -------------------------------------------------------------------------------
                             SWR1 OUTPUT PRINT TIMES
                        STRESS PERIOD   25   TIME STEP  2670
 --------------- --------------- --------------- --------------- ---------------
     0.40680E+06                                                                
 -------------------------------------------------------------------------------
 
 SOLVING FOR HEAD 
 INITIAL HNEW IS AN EXACT SOLUTION.

 NO OUTPUT CONTROL FOR STRESS PERIOD   25   TIME STEP 2671

 -------------------------------------------------------------------------------
                             SWR1 OUTPUT PRINT TIMES
                        STRESS PERIOD   25   TIME STEP  2671
 --------------- --------------- --------------- --------------- ---------------
     0.40692E+06                                                                
 -------------------------------------------------------------------------------
 
 SOLVING FOR HEAD 
 INITIAL HNEW IS AN EXACT SOLUTION.

 NO OUTPUT CONTROL FOR STRESS PERIOD   25   TIME STEP 2672

 -------------------------------------------------------------------------------
                             SWR1 OUTPUT PRINT TIMES
                        STRESS PERIOD   25   TIME STEP  2672
 --------------- --------------- --------------- --------------- ---------------
     0.40704E+06                                                                
 -------------------------------------------------------------------------------
 
 SOLVING FOR HEAD 
 INITIAL HNEW IS AN EXACT SOLUTION.

 NO OUTPUT CONTROL FOR STRESS PERIOD   25   TIME STEP 2673

 -------------------------------------------------------------------------------
                             SWR1 OUTPUT PRINT TIMES
                        STRESS PERIOD   25   TIME STEP  2673
 --------------- --------------- --------------- --------------- ---------------
     0.40716E+06                                                                
 -------------------------------------------------------------------------------
 
 SOLVING FOR HEAD 
 INITIAL HNEW IS AN EXACT SOLUTION.

 NO OUTPUT CONTROL FOR STRESS PERIOD   25   TIME STEP 2674

 -------------------------------------------------------------------------------
                             SWR1 OUTPUT PRINT TIMES
                        STRESS PERIOD   25   TIME STEP  2674
 --------------- --------------- --------------- --------------- ---------------
     0.40728E+06                                                                
 -------------------------------------------------------------------------------
 
 SOLVING FOR HEAD 
 INITIAL HNEW IS AN EXACT SOLUTION.

 NO OUTPUT CONTROL FOR STRESS PERIOD   25   TIME STEP 2675

 -------------------------------------------------------------------------------
                             SWR1 OUTPUT PRINT TIMES
                        STRESS PERIOD   25   TIME STEP  2675
 --------------- --------------- --------------- --------------- ---------------
     0.40740E+06                                                                
 -------------------------------------------------------------------------------
 
 SOLVING FOR HEAD 
 INITIAL HNEW IS AN EXACT SOLUTION.

 NO OUTPUT CONTROL FOR STRESS PERIOD   25   TIME STEP 2676

 -------------------------------------------------------------------------------
                             SWR1 OUTPUT PRINT TIMES
                        STRESS PERIOD   25   TIME STEP  2676
 --------------- --------------- --------------- --------------- ---------------
     0.40752E+06                                                                
 -------------------------------------------------------------------------------
 
 SOLVING FOR HEAD 
 INITIAL HNEW IS AN EXACT SOLUTION.

 NO OUTPUT CONTROL FOR STRESS PERIOD   25   TIME STEP 2677

 -------------------------------------------------------------------------------
                             SWR1 OUTPUT PRINT TIMES
                        STRESS PERIOD   25   TIME STEP  2677
 --------------- --------------- --------------- --------------- ---------------
     0.40764E+06                                                                
 -------------------------------------------------------------------------------
 
 SOLVING FOR HEAD 
 INITIAL HNEW IS AN EXACT SOLUTION.

 NO OUTPUT CONTROL FOR STRESS PERIOD   25   TIME STEP 2678

 -------------------------------------------------------------------------------
                             SWR1 OUTPUT PRINT TIMES
                        STRESS PERIOD   25   TIME STEP  2678
 --------------- --------------- --------------- --------------- ---------------
     0.40776E+06                                                                
 -------------------------------------------------------------------------------
 
 SOLVING FOR HEAD 
 INITIAL HNEW IS AN EXACT SOLUTION.

 NO OUTPUT CONTROL FOR STRESS PERIOD   25   TIME STEP 2679

 -------------------------------------------------------------------------------
                             SWR1 OUTPUT PRINT TIMES
                        STRESS PERIOD   25   TIME STEP  2679
 --------------- --------------- --------------- --------------- ---------------
     0.40788E+06                                                                
 -------------------------------------------------------------------------------
 
 SOLVING FOR HEAD 
 INITIAL HNEW IS AN EXACT SOLUTION.

 NO OUTPUT CONTROL FOR STRESS PERIOD   25   TIME STEP 2680

 -------------------------------------------------------------------------------
                             SWR1 OUTPUT PRINT TIMES
                        STRESS PERIOD   25   TIME STEP  2680
 --------------- --------------- --------------- --------------- ---------------
     0.40800E+06                                                                
 -------------------------------------------------------------------------------
 
 SOLVING FOR HEAD 
 INITIAL HNEW IS AN EXACT SOLUTION.

 NO OUTPUT CONTROL FOR STRESS PERIOD   25   TIME STEP 2681

 -------------------------------------------------------------------------------
                             SWR1 OUTPUT PRINT TIMES
                        STRESS PERIOD   25   TIME STEP  2681
 --------------- --------------- --------------- --------------- ---------------
     0.40812E+06                                                                
 -------------------------------------------------------------------------------
 
 SOLVING FOR HEAD 
 INITIAL HNEW IS AN EXACT SOLUTION.

 NO OUTPUT CONTROL FOR STRESS PERIOD   25   TIME STEP 2682

 -------------------------------------------------------------------------------
                             SWR1 OUTPUT PRINT TIMES
                        STRESS PERIOD   25   TIME STEP  2682
 --------------- --------------- --------------- --------------- ---------------
     0.40824E+06                                                                
 -------------------------------------------------------------------------------
 
 SOLVING FOR HEAD 
 INITIAL HNEW IS AN EXACT SOLUTION.

 NO OUTPUT CONTROL FOR STRESS PERIOD   25   TIME STEP 2683

 -------------------------------------------------------------------------------
                             SWR1 OUTPUT PRINT TIMES
                        STRESS PERIOD   25   TIME STEP  2683
 --------------- --------------- --------------- --------------- ---------------
     0.40836E+06                                                                
 -------------------------------------------------------------------------------
 
 SOLVING FOR HEAD 
 INITIAL HNEW IS AN EXACT SOLUTION.

 NO OUTPUT CONTROL FOR STRESS PERIOD   25   TIME STEP 2684

 -------------------------------------------------------------------------------
                             SWR1 OUTPUT PRINT TIMES
                        STRESS PERIOD   25   TIME STEP  2684
 --------------- --------------- --------------- --------------- ---------------
     0.40848E+06                                                                
 -------------------------------------------------------------------------------
 
 SOLVING FOR HEAD 
 INITIAL HNEW IS AN EXACT SOLUTION.

 NO OUTPUT CONTROL FOR STRESS PERIOD   25   TIME STEP 2685

 -------------------------------------------------------------------------------
                             SWR1 OUTPUT PRINT TIMES
                        STRESS PERIOD   25   TIME STEP  2685
 --------------- --------------- --------------- --------------- ---------------
     0.40860E+06                                                                
 -------------------------------------------------------------------------------
 
 SOLVING FOR HEAD 
 INITIAL HNEW IS AN EXACT SOLUTION.

 NO OUTPUT CONTROL FOR STRESS PERIOD   25   TIME STEP 2686

 -------------------------------------------------------------------------------
                             SWR1 OUTPUT PRINT TIMES
                        STRESS PERIOD   25   TIME STEP  2686
 --------------- --------------- --------------- --------------- ---------------
     0.40872E+06                                                                
 -------------------------------------------------------------------------------
 
 SOLVING FOR HEAD 
 INITIAL HNEW IS AN EXACT SOLUTION.

 NO OUTPUT CONTROL FOR STRESS PERIOD   25   TIME STEP 2687

 -------------------------------------------------------------------------------
                             SWR1 OUTPUT PRINT TIMES
                        STRESS PERIOD   25   TIME STEP  2687
 --------------- --------------- --------------- --------------- ---------------
     0.40884E+06                                                                
 -------------------------------------------------------------------------------
 
 SOLVING FOR HEAD 
 INITIAL HNEW IS AN EXACT SOLUTION.

 NO OUTPUT CONTROL FOR STRESS PERIOD   25   TIME STEP 2688

 -------------------------------------------------------------------------------
                             SWR1 OUTPUT PRINT TIMES
                        STRESS PERIOD   25   TIME STEP  2688
 --------------- --------------- --------------- --------------- ---------------
     0.40896E+06                                                                
 -------------------------------------------------------------------------------
 
 SOLVING FOR HEAD 
 INITIAL HNEW IS AN EXACT SOLUTION.

 NO OUTPUT CONTROL FOR STRESS PERIOD   25   TIME STEP 2689

 -------------------------------------------------------------------------------
                             SWR1 OUTPUT PRINT TIMES
                        STRESS PERIOD   25   TIME STEP  2689
 --------------- --------------- --------------- --------------- ---------------
     0.40908E+06                                                                
 -------------------------------------------------------------------------------
 
 SOLVING FOR HEAD 
 INITIAL HNEW IS AN EXACT SOLUTION.

 NO OUTPUT CONTROL FOR STRESS PERIOD   25   TIME STEP 2690

 -------------------------------------------------------------------------------
                             SWR1 OUTPUT PRINT TIMES
                        STRESS PERIOD   25   TIME STEP  2690
 --------------- --------------- --------------- --------------- ---------------
     0.40920E+06                                                                
 -------------------------------------------------------------------------------
 
 SOLVING FOR HEAD 
 INITIAL HNEW IS AN EXACT SOLUTION.

 NO OUTPUT CONTROL FOR STRESS PERIOD   25   TIME STEP 2691

 -------------------------------------------------------------------------------
                             SWR1 OUTPUT PRINT TIMES
                        STRESS PERIOD   25   TIME STEP  2691
 --------------- --------------- --------------- --------------- ---------------
     0.40932E+06                                                                
 -------------------------------------------------------------------------------
 
 SOLVING FOR HEAD 
 INITIAL HNEW IS AN EXACT SOLUTION.

 NO OUTPUT CONTROL FOR STRESS PERIOD   25   TIME STEP 2692

 -------------------------------------------------------------------------------
                             SWR1 OUTPUT PRINT TIMES
                        STRESS PERIOD   25   TIME STEP  2692
 --------------- --------------- --------------- --------------- ---------------
     0.40944E+06                                                                
 -------------------------------------------------------------------------------
 
 SOLVING FOR HEAD 
 INITIAL HNEW IS AN EXACT SOLUTION.

 NO OUTPUT CONTROL FOR STRESS PERIOD   25   TIME STEP 2693

 -------------------------------------------------------------------------------
                             SWR1 OUTPUT PRINT TIMES
                        STRESS PERIOD   25   TIME STEP  2693
 --------------- --------------- --------------- --------------- ---------------
     0.40956E+06                                                                
 -------------------------------------------------------------------------------
 
 SOLVING FOR HEAD 
 INITIAL HNEW IS AN EXACT SOLUTION.

 NO OUTPUT CONTROL FOR STRESS PERIOD   25   TIME STEP 2694

 -------------------------------------------------------------------------------
                             SWR1 OUTPUT PRINT TIMES
                        STRESS PERIOD   25   TIME STEP  2694
 --------------- --------------- --------------- --------------- ---------------
     0.40968E+06                                                                
 -------------------------------------------------------------------------------
 
 SOLVING FOR HEAD 
 INITIAL HNEW IS AN EXACT SOLUTION.

 NO OUTPUT CONTROL FOR STRESS PERIOD   25   TIME STEP 2695

 -------------------------------------------------------------------------------
                             SWR1 OUTPUT PRINT TIMES
                        STRESS PERIOD   25   TIME STEP  2695
 --------------- --------------- --------------- --------------- ---------------
     0.40980E+06                                                                
 -------------------------------------------------------------------------------
 
 SOLVING FOR HEAD 
 INITIAL HNEW IS AN EXACT SOLUTION.

 NO OUTPUT CONTROL FOR STRESS PERIOD   25   TIME STEP 2696

 -------------------------------------------------------------------------------
                             SWR1 OUTPUT PRINT TIMES
                        STRESS PERIOD   25   TIME STEP  2696
 --------------- --------------- --------------- --------------- ---------------
     0.40992E+06                                                                
 -------------------------------------------------------------------------------
 
 SOLVING FOR HEAD 
 INITIAL HNEW IS AN EXACT SOLUTION.

 NO OUTPUT CONTROL FOR STRESS PERIOD   25   TIME STEP 2697

 -------------------------------------------------------------------------------
                             SWR1 OUTPUT PRINT TIMES
                        STRESS PERIOD   25   TIME STEP  2697
 --------------- --------------- --------------- --------------- ---------------
     0.41004E+06                                                                
 -------------------------------------------------------------------------------
 
 SOLVING FOR HEAD 
 INITIAL HNEW IS AN EXACT SOLUTION.

 NO OUTPUT CONTROL FOR STRESS PERIOD   25   TIME STEP 2698

 -------------------------------------------------------------------------------
                             SWR1 OUTPUT PRINT TIMES
                        STRESS PERIOD   25   TIME STEP  2698
 --------------- --------------- --------------- --------------- ---------------
     0.41016E+06                                                                
 -------------------------------------------------------------------------------
 
 SOLVING FOR HEAD 
 INITIAL HNEW IS AN EXACT SOLUTION.

 NO OUTPUT CONTROL FOR STRESS PERIOD   25   TIME STEP 2699

 -------------------------------------------------------------------------------
                             SWR1 OUTPUT PRINT TIMES
                        STRESS PERIOD   25   TIME STEP  2699
 --------------- --------------- --------------- --------------- ---------------
     0.41028E+06                                                                
 -------------------------------------------------------------------------------
 
 SOLVING FOR HEAD 
 INITIAL HNEW IS AN EXACT SOLUTION.

 NO OUTPUT CONTROL FOR STRESS PERIOD   25   TIME STEP 2700

 -------------------------------------------------------------------------------
                             SWR1 OUTPUT PRINT TIMES
                        STRESS PERIOD   25   TIME STEP  2700
 --------------- --------------- --------------- --------------- ---------------
     0.41040E+06                                                                
 -------------------------------------------------------------------------------
 
 SOLVING FOR HEAD 
 INITIAL HNEW IS AN EXACT SOLUTION.

 NO OUTPUT CONTROL FOR STRESS PERIOD   25   TIME STEP 2701

 -------------------------------------------------------------------------------
                             SWR1 OUTPUT PRINT TIMES
                        STRESS PERIOD   25   TIME STEP  2701
 --------------- --------------- --------------- --------------- ---------------
     0.41052E+06                                                                
 -------------------------------------------------------------------------------
 
 SOLVING FOR HEAD 
 INITIAL HNEW IS AN EXACT SOLUTION.

 NO OUTPUT CONTROL FOR STRESS PERIOD   25   TIME STEP 2702

 -------------------------------------------------------------------------------
                             SWR1 OUTPUT PRINT TIMES
                        STRESS PERIOD   25   TIME STEP  2702
 --------------- --------------- --------------- --------------- ---------------
     0.41064E+06                                                                
 -------------------------------------------------------------------------------
 
 SOLVING FOR HEAD 
 INITIAL HNEW IS AN EXACT SOLUTION.

 NO OUTPUT CONTROL FOR STRESS PERIOD   25   TIME STEP 2703

 -------------------------------------------------------------------------------
                             SWR1 OUTPUT PRINT TIMES
                        STRESS PERIOD   25   TIME STEP  2703
 --------------- --------------- --------------- --------------- ---------------
     0.41076E+06                                                                
 -------------------------------------------------------------------------------
 
 SOLVING FOR HEAD 
 INITIAL HNEW IS AN EXACT SOLUTION.

 NO OUTPUT CONTROL FOR STRESS PERIOD   25   TIME STEP 2704

 -------------------------------------------------------------------------------
                             SWR1 OUTPUT PRINT TIMES
                        STRESS PERIOD   25   TIME STEP  2704
 --------------- --------------- --------------- --------------- ---------------
     0.41088E+06                                                                
 -------------------------------------------------------------------------------
 
 SOLVING FOR HEAD 
 INITIAL HNEW IS AN EXACT SOLUTION.

 NO OUTPUT CONTROL FOR STRESS PERIOD   25   TIME STEP 2705

 -------------------------------------------------------------------------------
                             SWR1 OUTPUT PRINT TIMES
                        STRESS PERIOD   25   TIME STEP  2705
 --------------- --------------- --------------- --------------- ---------------
     0.41100E+06                                                                
 -------------------------------------------------------------------------------
 
 SOLVING FOR HEAD 
 INITIAL HNEW IS AN EXACT SOLUTION.

 NO OUTPUT CONTROL FOR STRESS PERIOD   25   TIME STEP 2706

 -------------------------------------------------------------------------------
                             SWR1 OUTPUT PRINT TIMES
                        STRESS PERIOD   25   TIME STEP  2706
 --------------- --------------- --------------- --------------- ---------------
     0.41112E+06                                                                
 -------------------------------------------------------------------------------
 
 SOLVING FOR HEAD 
 INITIAL HNEW IS AN EXACT SOLUTION.

 NO OUTPUT CONTROL FOR STRESS PERIOD   25   TIME STEP 2707

 -------------------------------------------------------------------------------
                             SWR1 OUTPUT PRINT TIMES
                        STRESS PERIOD   25   TIME STEP  2707
 --------------- --------------- --------------- --------------- ---------------
     0.41124E+06                                                                
 -------------------------------------------------------------------------------
 
 SOLVING FOR HEAD 
 INITIAL HNEW IS AN EXACT SOLUTION.

 NO OUTPUT CONTROL FOR STRESS PERIOD   25   TIME STEP 2708

 -------------------------------------------------------------------------------
                             SWR1 OUTPUT PRINT TIMES
                        STRESS PERIOD   25   TIME STEP  2708
 --------------- --------------- --------------- --------------- ---------------
     0.41136E+06                                                                
 -------------------------------------------------------------------------------
 
 SOLVING FOR HEAD 
 INITIAL HNEW IS AN EXACT SOLUTION.

 NO OUTPUT CONTROL FOR STRESS PERIOD   25   TIME STEP 2709

 -------------------------------------------------------------------------------
                             SWR1 OUTPUT PRINT TIMES
                        STRESS PERIOD   25   TIME STEP  2709
 --------------- --------------- --------------- --------------- ---------------
     0.41148E+06                                                                
 -------------------------------------------------------------------------------
 
 SOLVING FOR HEAD 
 INITIAL HNEW IS AN EXACT SOLUTION.

 NO OUTPUT CONTROL FOR STRESS PERIOD   25   TIME STEP 2710

 -------------------------------------------------------------------------------
                             SWR1 OUTPUT PRINT TIMES
                        STRESS PERIOD   25   TIME STEP  2710
 --------------- --------------- --------------- --------------- ---------------
     0.41160E+06                                                                
 -------------------------------------------------------------------------------
 
 SOLVING FOR HEAD 
 INITIAL HNEW IS AN EXACT SOLUTION.

 NO OUTPUT CONTROL FOR STRESS PERIOD   25   TIME STEP 2711

 -------------------------------------------------------------------------------
                             SWR1 OUTPUT PRINT TIMES
                        STRESS PERIOD   25   TIME STEP  2711
 --------------- --------------- --------------- --------------- ---------------
     0.41172E+06                                                                
 -------------------------------------------------------------------------------
 
 SOLVING FOR HEAD 
 INITIAL HNEW IS AN EXACT SOLUTION.

 NO OUTPUT CONTROL FOR STRESS PERIOD   25   TIME STEP 2712

 -------------------------------------------------------------------------------
                             SWR1 OUTPUT PRINT TIMES
                        STRESS PERIOD   25   TIME STEP  2712
 --------------- --------------- --------------- --------------- ---------------
     0.41184E+06                                                                
 -------------------------------------------------------------------------------
 
 SOLVING FOR HEAD 
 INITIAL HNEW IS AN EXACT SOLUTION.

 NO OUTPUT CONTROL FOR STRESS PERIOD   25   TIME STEP 2713

 -------------------------------------------------------------------------------
                             SWR1 OUTPUT PRINT TIMES
                        STRESS PERIOD   25   TIME STEP  2713
 --------------- --------------- --------------- --------------- ---------------
     0.41196E+06                                                                
 -------------------------------------------------------------------------------
 
 SOLVING FOR HEAD 
 INITIAL HNEW IS AN EXACT SOLUTION.

 NO OUTPUT CONTROL FOR STRESS PERIOD   25   TIME STEP 2714

 -------------------------------------------------------------------------------
                             SWR1 OUTPUT PRINT TIMES
                        STRESS PERIOD   25   TIME STEP  2714
 --------------- --------------- --------------- --------------- ---------------
     0.41208E+06                                                                
 -------------------------------------------------------------------------------
 
 SOLVING FOR HEAD 
 INITIAL HNEW IS AN EXACT SOLUTION.

 NO OUTPUT CONTROL FOR STRESS PERIOD   25   TIME STEP 2715

 -------------------------------------------------------------------------------
                             SWR1 OUTPUT PRINT TIMES
                        STRESS PERIOD   25   TIME STEP  2715
 --------------- --------------- --------------- --------------- ---------------
     0.41220E+06                                                                
 -------------------------------------------------------------------------------
 
 SOLVING FOR HEAD 
 INITIAL HNEW IS AN EXACT SOLUTION.

 NO OUTPUT CONTROL FOR STRESS PERIOD   25   TIME STEP 2716

 -------------------------------------------------------------------------------
                             SWR1 OUTPUT PRINT TIMES
                        STRESS PERIOD   25   TIME STEP  2716
 --------------- --------------- --------------- --------------- ---------------
     0.41232E+06                                                                
 -------------------------------------------------------------------------------
 
 SOLVING FOR HEAD 
 INITIAL HNEW IS AN EXACT SOLUTION.

 NO OUTPUT CONTROL FOR STRESS PERIOD   25   TIME STEP 2717

 -------------------------------------------------------------------------------
                             SWR1 OUTPUT PRINT TIMES
                        STRESS PERIOD   25   TIME STEP  2717
 --------------- --------------- --------------- --------------- ---------------
     0.41244E+06                                                                
 -------------------------------------------------------------------------------
 
 SOLVING FOR HEAD 
 INITIAL HNEW IS AN EXACT SOLUTION.

 NO OUTPUT CONTROL FOR STRESS PERIOD   25   TIME STEP 2718

 -------------------------------------------------------------------------------
                             SWR1 OUTPUT PRINT TIMES
                        STRESS PERIOD   25   TIME STEP  2718
 --------------- --------------- --------------- --------------- ---------------
     0.41256E+06                                                                
 -------------------------------------------------------------------------------
 
 SOLVING FOR HEAD 
 INITIAL HNEW IS AN EXACT SOLUTION.

 NO OUTPUT CONTROL FOR STRESS PERIOD   25   TIME STEP 2719

 -------------------------------------------------------------------------------
                             SWR1 OUTPUT PRINT TIMES
                        STRESS PERIOD   25   TIME STEP  2719
 --------------- --------------- --------------- --------------- ---------------
     0.41268E+06                                                                
 -------------------------------------------------------------------------------
 
 SOLVING FOR HEAD 
 INITIAL HNEW IS AN EXACT SOLUTION.

 NO OUTPUT CONTROL FOR STRESS PERIOD   25   TIME STEP 2720

 -------------------------------------------------------------------------------
                             SWR1 OUTPUT PRINT TIMES
                        STRESS PERIOD   25   TIME STEP  2720
 --------------- --------------- --------------- --------------- ---------------
     0.41280E+06                                                                
 -------------------------------------------------------------------------------
 
 SOLVING FOR HEAD 
 INITIAL HNEW IS AN EXACT SOLUTION.

 NO OUTPUT CONTROL FOR STRESS PERIOD   25   TIME STEP 2721

 -------------------------------------------------------------------------------
                             SWR1 OUTPUT PRINT TIMES
                        STRESS PERIOD   25   TIME STEP  2721
 --------------- --------------- --------------- --------------- ---------------
     0.41292E+06                                                                
 -------------------------------------------------------------------------------
 
 SOLVING FOR HEAD 
 INITIAL HNEW IS AN EXACT SOLUTION.

 NO OUTPUT CONTROL FOR STRESS PERIOD   25   TIME STEP 2722

 -------------------------------------------------------------------------------
                             SWR1 OUTPUT PRINT TIMES
                        STRESS PERIOD   25   TIME STEP  2722
 --------------- --------------- --------------- --------------- ---------------
     0.41304E+06                                                                
 -------------------------------------------------------------------------------
 
 SOLVING FOR HEAD 
 INITIAL HNEW IS AN EXACT SOLUTION.

 NO OUTPUT CONTROL FOR STRESS PERIOD   25   TIME STEP 2723

 -------------------------------------------------------------------------------
                             SWR1 OUTPUT PRINT TIMES
                        STRESS PERIOD   25   TIME STEP  2723
 --------------- --------------- --------------- --------------- ---------------
     0.41316E+06                                                                
 -------------------------------------------------------------------------------
 
 SOLVING FOR HEAD 
 INITIAL HNEW IS AN EXACT SOLUTION.

 NO OUTPUT CONTROL FOR STRESS PERIOD   25   TIME STEP 2724

 -------------------------------------------------------------------------------
                             SWR1 OUTPUT PRINT TIMES
                        STRESS PERIOD   25   TIME STEP  2724
 --------------- --------------- --------------- --------------- ---------------
     0.41328E+06                                                                
 -------------------------------------------------------------------------------
 
 SOLVING FOR HEAD 
 INITIAL HNEW IS AN EXACT SOLUTION.

 NO OUTPUT CONTROL FOR STRESS PERIOD   25   TIME STEP 2725

 -------------------------------------------------------------------------------
                             SWR1 OUTPUT PRINT TIMES
                        STRESS PERIOD   25   TIME STEP  2725
 --------------- --------------- --------------- --------------- ---------------
     0.41340E+06                                                                
 -------------------------------------------------------------------------------
 
 SOLVING FOR HEAD 
 INITIAL HNEW IS AN EXACT SOLUTION.

 NO OUTPUT CONTROL FOR STRESS PERIOD   25   TIME STEP 2726

 -------------------------------------------------------------------------------
                             SWR1 OUTPUT PRINT TIMES
                        STRESS PERIOD   25   TIME STEP  2726
 --------------- --------------- --------------- --------------- ---------------
     0.41352E+06                                                                
 -------------------------------------------------------------------------------
 
 SOLVING FOR HEAD 
 INITIAL HNEW IS AN EXACT SOLUTION.

 NO OUTPUT CONTROL FOR STRESS PERIOD   25   TIME STEP 2727

 -------------------------------------------------------------------------------
                             SWR1 OUTPUT PRINT TIMES
                        STRESS PERIOD   25   TIME STEP  2727
 --------------- --------------- --------------- --------------- ---------------
     0.41364E+06                                                                
 -------------------------------------------------------------------------------
 
 SOLVING FOR HEAD 
 INITIAL HNEW IS AN EXACT SOLUTION.

 NO OUTPUT CONTROL FOR STRESS PERIOD   25   TIME STEP 2728

 -------------------------------------------------------------------------------
                             SWR1 OUTPUT PRINT TIMES
                        STRESS PERIOD   25   TIME STEP  2728
 --------------- --------------- --------------- --------------- ---------------
     0.41376E+06                                                                
 -------------------------------------------------------------------------------
 
 SOLVING FOR HEAD 
 INITIAL HNEW IS AN EXACT SOLUTION.

 NO OUTPUT CONTROL FOR STRESS PERIOD   25   TIME STEP 2729

 -------------------------------------------------------------------------------
                             SWR1 OUTPUT PRINT TIMES
                        STRESS PERIOD   25   TIME STEP  2729
 --------------- --------------- --------------- --------------- ---------------
     0.41388E+06                                                                
 -------------------------------------------------------------------------------
 
 SOLVING FOR HEAD 
 INITIAL HNEW IS AN EXACT SOLUTION.

 NO OUTPUT CONTROL FOR STRESS PERIOD   25   TIME STEP 2730

 -------------------------------------------------------------------------------
                             SWR1 OUTPUT PRINT TIMES
                        STRESS PERIOD   25   TIME STEP  2730
 --------------- --------------- --------------- --------------- ---------------
     0.41400E+06                                                                
 -------------------------------------------------------------------------------
 
 SOLVING FOR HEAD 
 INITIAL HNEW IS AN EXACT SOLUTION.

 NO OUTPUT CONTROL FOR STRESS PERIOD   25   TIME STEP 2731

 -------------------------------------------------------------------------------
                             SWR1 OUTPUT PRINT TIMES
                        STRESS PERIOD   25   TIME STEP  2731
 --------------- --------------- --------------- --------------- ---------------
     0.41412E+06                                                                
 -------------------------------------------------------------------------------
 
 SOLVING FOR HEAD 
 INITIAL HNEW IS AN EXACT SOLUTION.

 NO OUTPUT CONTROL FOR STRESS PERIOD   25   TIME STEP 2732

 -------------------------------------------------------------------------------
                             SWR1 OUTPUT PRINT TIMES
                        STRESS PERIOD   25   TIME STEP  2732
 --------------- --------------- --------------- --------------- ---------------
     0.41424E+06                                                                
 -------------------------------------------------------------------------------
 
 SOLVING FOR HEAD 
 INITIAL HNEW IS AN EXACT SOLUTION.

 NO OUTPUT CONTROL FOR STRESS PERIOD   25   TIME STEP 2733

 -------------------------------------------------------------------------------
                             SWR1 OUTPUT PRINT TIMES
                        STRESS PERIOD   25   TIME STEP  2733
 --------------- --------------- --------------- --------------- ---------------
     0.41436E+06                                                                
 -------------------------------------------------------------------------------
 
 SOLVING FOR HEAD 
 INITIAL HNEW IS AN EXACT SOLUTION.

 NO OUTPUT CONTROL FOR STRESS PERIOD   25   TIME STEP 2734

 -------------------------------------------------------------------------------
                             SWR1 OUTPUT PRINT TIMES
                        STRESS PERIOD   25   TIME STEP  2734
 --------------- --------------- --------------- --------------- ---------------
     0.41448E+06                                                                
 -------------------------------------------------------------------------------
 
 SOLVING FOR HEAD 
 INITIAL HNEW IS AN EXACT SOLUTION.

 NO OUTPUT CONTROL FOR STRESS PERIOD   25   TIME STEP 2735

 -------------------------------------------------------------------------------
                             SWR1 OUTPUT PRINT TIMES
                        STRESS PERIOD   25   TIME STEP  2735
 --------------- --------------- --------------- --------------- ---------------
     0.41460E+06                                                                
 -------------------------------------------------------------------------------
 
 SOLVING FOR HEAD 
 INITIAL HNEW IS AN EXACT SOLUTION.

 NO OUTPUT CONTROL FOR STRESS PERIOD   25   TIME STEP 2736

 -------------------------------------------------------------------------------
                             SWR1 OUTPUT PRINT TIMES
                        STRESS PERIOD   25   TIME STEP  2736
 --------------- --------------- --------------- --------------- ---------------
     0.41472E+06                                                                
 -------------------------------------------------------------------------------
 
 SOLVING FOR HEAD 
 INITIAL HNEW IS AN EXACT SOLUTION.

 NO OUTPUT CONTROL FOR STRESS PERIOD   25   TIME STEP 2737

 -------------------------------------------------------------------------------
                             SWR1 OUTPUT PRINT TIMES
                        STRESS PERIOD   25   TIME STEP  2737
 --------------- --------------- --------------- --------------- ---------------
     0.41484E+06                                                                
 -------------------------------------------------------------------------------
 
 SOLVING FOR HEAD 
 INITIAL HNEW IS AN EXACT SOLUTION.

 NO OUTPUT CONTROL FOR STRESS PERIOD   25   TIME STEP 2738

 -------------------------------------------------------------------------------
                             SWR1 OUTPUT PRINT TIMES
                        STRESS PERIOD   25   TIME STEP  2738
 --------------- --------------- --------------- --------------- ---------------
     0.41496E+06                                                                
 -------------------------------------------------------------------------------
 
 SOLVING FOR HEAD 
 INITIAL HNEW IS AN EXACT SOLUTION.

 NO OUTPUT CONTROL FOR STRESS PERIOD   25   TIME STEP 2739

 -------------------------------------------------------------------------------
                             SWR1 OUTPUT PRINT TIMES
                        STRESS PERIOD   25   TIME STEP  2739
 --------------- --------------- --------------- --------------- ---------------
     0.41508E+06                                                                
 -------------------------------------------------------------------------------
 
 SOLVING FOR HEAD 
 INITIAL HNEW IS AN EXACT SOLUTION.

 NO OUTPUT CONTROL FOR STRESS PERIOD   25   TIME STEP 2740

 -------------------------------------------------------------------------------
                             SWR1 OUTPUT PRINT TIMES
                        STRESS PERIOD   25   TIME STEP  2740
 --------------- --------------- --------------- --------------- ---------------
     0.41520E+06                                                                
 -------------------------------------------------------------------------------
 
 SOLVING FOR HEAD 
 INITIAL HNEW IS AN EXACT SOLUTION.

 NO OUTPUT CONTROL FOR STRESS PERIOD   25   TIME STEP 2741

 -------------------------------------------------------------------------------
                             SWR1 OUTPUT PRINT TIMES
                        STRESS PERIOD   25   TIME STEP  2741
 --------------- --------------- --------------- --------------- ---------------
     0.41532E+06                                                                
 -------------------------------------------------------------------------------
 
 SOLVING FOR HEAD 
 INITIAL HNEW IS AN EXACT SOLUTION.

 NO OUTPUT CONTROL FOR STRESS PERIOD   25   TIME STEP 2742

 -------------------------------------------------------------------------------
                             SWR1 OUTPUT PRINT TIMES
                        STRESS PERIOD   25   TIME STEP  2742
 --------------- --------------- --------------- --------------- ---------------
     0.41544E+06                                                                
 -------------------------------------------------------------------------------
 
 SOLVING FOR HEAD 
 INITIAL HNEW IS AN EXACT SOLUTION.

 NO OUTPUT CONTROL FOR STRESS PERIOD   25   TIME STEP 2743

 -------------------------------------------------------------------------------
                             SWR1 OUTPUT PRINT TIMES
                        STRESS PERIOD   25   TIME STEP  2743
 --------------- --------------- --------------- --------------- ---------------
     0.41556E+06                                                                
 -------------------------------------------------------------------------------
 
 SOLVING FOR HEAD 
 INITIAL HNEW IS AN EXACT SOLUTION.

 NO OUTPUT CONTROL FOR STRESS PERIOD   25   TIME STEP 2744

 -------------------------------------------------------------------------------
                             SWR1 OUTPUT PRINT TIMES
                        STRESS PERIOD   25   TIME STEP  2744
 --------------- --------------- --------------- --------------- ---------------
     0.41568E+06                                                                
 -------------------------------------------------------------------------------
 
 SOLVING FOR HEAD 
 INITIAL HNEW IS AN EXACT SOLUTION.

 NO OUTPUT CONTROL FOR STRESS PERIOD   25   TIME STEP 2745

 -------------------------------------------------------------------------------
                             SWR1 OUTPUT PRINT TIMES
                        STRESS PERIOD   25   TIME STEP  2745
 --------------- --------------- --------------- --------------- ---------------
     0.41580E+06                                                                
 -------------------------------------------------------------------------------
 
 SOLVING FOR HEAD 
 INITIAL HNEW IS AN EXACT SOLUTION.

 NO OUTPUT CONTROL FOR STRESS PERIOD   25   TIME STEP 2746

 -------------------------------------------------------------------------------
                             SWR1 OUTPUT PRINT TIMES
                        STRESS PERIOD   25   TIME STEP  2746
 --------------- --------------- --------------- --------------- ---------------
     0.41592E+06                                                                
 -------------------------------------------------------------------------------
 
 SOLVING FOR HEAD 
 INITIAL HNEW IS AN EXACT SOLUTION.

 NO OUTPUT CONTROL FOR STRESS PERIOD   25   TIME STEP 2747

 -------------------------------------------------------------------------------
                             SWR1 OUTPUT PRINT TIMES
                        STRESS PERIOD   25   TIME STEP  2747
 --------------- --------------- --------------- --------------- ---------------
     0.41604E+06                                                                
 -------------------------------------------------------------------------------
 
 SOLVING FOR HEAD 
 INITIAL HNEW IS AN EXACT SOLUTION.

 NO OUTPUT CONTROL FOR STRESS PERIOD   25   TIME STEP 2748

 -------------------------------------------------------------------------------
                             SWR1 OUTPUT PRINT TIMES
                        STRESS PERIOD   25   TIME STEP  2748
 --------------- --------------- --------------- --------------- ---------------
     0.41616E+06                                                                
 -------------------------------------------------------------------------------
 
 SOLVING FOR HEAD 
 INITIAL HNEW IS AN EXACT SOLUTION.

 NO OUTPUT CONTROL FOR STRESS PERIOD   25   TIME STEP 2749

 -------------------------------------------------------------------------------
                             SWR1 OUTPUT PRINT TIMES
                        STRESS PERIOD   25   TIME STEP  2749
 --------------- --------------- --------------- --------------- ---------------
     0.41628E+06                                                                
 -------------------------------------------------------------------------------
 
 SOLVING FOR HEAD 
 INITIAL HNEW IS AN EXACT SOLUTION.

 NO OUTPUT CONTROL FOR STRESS PERIOD   25   TIME STEP 2750

 -------------------------------------------------------------------------------
                             SWR1 OUTPUT PRINT TIMES
                        STRESS PERIOD   25   TIME STEP  2750
 --------------- --------------- --------------- --------------- ---------------
     0.41640E+06                                                                
 -------------------------------------------------------------------------------
 
 SOLVING FOR HEAD 
 INITIAL HNEW IS AN EXACT SOLUTION.

 NO OUTPUT CONTROL FOR STRESS PERIOD   25   TIME STEP 2751

 -------------------------------------------------------------------------------
                             SWR1 OUTPUT PRINT TIMES
                        STRESS PERIOD   25   TIME STEP  2751
 --------------- --------------- --------------- --------------- ---------------
     0.41652E+06                                                                
 -------------------------------------------------------------------------------
 
 SOLVING FOR HEAD 
 INITIAL HNEW IS AN EXACT SOLUTION.

 NO OUTPUT CONTROL FOR STRESS PERIOD   25   TIME STEP 2752

 -------------------------------------------------------------------------------
                             SWR1 OUTPUT PRINT TIMES
                        STRESS PERIOD   25   TIME STEP  2752
 --------------- --------------- --------------- --------------- ---------------
     0.41664E+06                                                                
 -------------------------------------------------------------------------------
 
 SOLVING FOR HEAD 
 INITIAL HNEW IS AN EXACT SOLUTION.

 NO OUTPUT CONTROL FOR STRESS PERIOD   25   TIME STEP 2753

 -------------------------------------------------------------------------------
                             SWR1 OUTPUT PRINT TIMES
                        STRESS PERIOD   25   TIME STEP  2753
 --------------- --------------- --------------- --------------- ---------------
     0.41676E+06                                                                
 -------------------------------------------------------------------------------
 
 SOLVING FOR HEAD 
 INITIAL HNEW IS AN EXACT SOLUTION.

 NO OUTPUT CONTROL FOR STRESS PERIOD   25   TIME STEP 2754

 -------------------------------------------------------------------------------
                             SWR1 OUTPUT PRINT TIMES
                        STRESS PERIOD   25   TIME STEP  2754
 --------------- --------------- --------------- --------------- ---------------
     0.41688E+06                                                                
 -------------------------------------------------------------------------------
 
 SOLVING FOR HEAD 
 INITIAL HNEW IS AN EXACT SOLUTION.

 NO OUTPUT CONTROL FOR STRESS PERIOD   25   TIME STEP 2755

 -------------------------------------------------------------------------------
                             SWR1 OUTPUT PRINT TIMES
                        STRESS PERIOD   25   TIME STEP  2755
 --------------- --------------- --------------- --------------- ---------------
     0.41700E+06                                                                
 -------------------------------------------------------------------------------
 
 SOLVING FOR HEAD 
 INITIAL HNEW IS AN EXACT SOLUTION.

 NO OUTPUT CONTROL FOR STRESS PERIOD   25   TIME STEP 2756

 -------------------------------------------------------------------------------
                             SWR1 OUTPUT PRINT TIMES
                        STRESS PERIOD   25   TIME STEP  2756
 --------------- --------------- --------------- --------------- ---------------
     0.41712E+06                                                                
 -------------------------------------------------------------------------------
 
 SOLVING FOR HEAD 
 INITIAL HNEW IS AN EXACT SOLUTION.

 NO OUTPUT CONTROL FOR STRESS PERIOD   25   TIME STEP 2757

 -------------------------------------------------------------------------------
                             SWR1 OUTPUT PRINT TIMES
                        STRESS PERIOD   25   TIME STEP  2757
 --------------- --------------- --------------- --------------- ---------------
     0.41724E+06                                                                
 -------------------------------------------------------------------------------
 
 SOLVING FOR HEAD 
 INITIAL HNEW IS AN EXACT SOLUTION.

 NO OUTPUT CONTROL FOR STRESS PERIOD   25   TIME STEP 2758

 -------------------------------------------------------------------------------
                             SWR1 OUTPUT PRINT TIMES
                        STRESS PERIOD   25   TIME STEP  2758
 --------------- --------------- --------------- --------------- ---------------
     0.41736E+06                                                                
 -------------------------------------------------------------------------------
 
 SOLVING FOR HEAD 
 INITIAL HNEW IS AN EXACT SOLUTION.

 NO OUTPUT CONTROL FOR STRESS PERIOD   25   TIME STEP 2759

 -------------------------------------------------------------------------------
                             SWR1 OUTPUT PRINT TIMES
                        STRESS PERIOD   25   TIME STEP  2759
 --------------- --------------- --------------- --------------- ---------------
     0.41748E+06                                                                
 -------------------------------------------------------------------------------
 
 SOLVING FOR HEAD 
 INITIAL HNEW IS AN EXACT SOLUTION.

 NO OUTPUT CONTROL FOR STRESS PERIOD   25   TIME STEP 2760

 -------------------------------------------------------------------------------
                             SWR1 OUTPUT PRINT TIMES
                        STRESS PERIOD   25   TIME STEP  2760
 --------------- --------------- --------------- --------------- ---------------
     0.41760E+06                                                                
 -------------------------------------------------------------------------------
 
 SOLVING FOR HEAD 
 INITIAL HNEW IS AN EXACT SOLUTION.

 NO OUTPUT CONTROL FOR STRESS PERIOD   25   TIME STEP 2761

 -------------------------------------------------------------------------------
                             SWR1 OUTPUT PRINT TIMES
                        STRESS PERIOD   25   TIME STEP  2761
 --------------- --------------- --------------- --------------- ---------------
     0.41772E+06                                                                
 -------------------------------------------------------------------------------
 
 SOLVING FOR HEAD 
 INITIAL HNEW IS AN EXACT SOLUTION.

 NO OUTPUT CONTROL FOR STRESS PERIOD   25   TIME STEP 2762

 -------------------------------------------------------------------------------
                             SWR1 OUTPUT PRINT TIMES
                        STRESS PERIOD   25   TIME STEP  2762
 --------------- --------------- --------------- --------------- ---------------
     0.41784E+06                                                                
 -------------------------------------------------------------------------------
 
 SOLVING FOR HEAD 
 INITIAL HNEW IS AN EXACT SOLUTION.

 NO OUTPUT CONTROL FOR STRESS PERIOD   25   TIME STEP 2763

 -------------------------------------------------------------------------------
                             SWR1 OUTPUT PRINT TIMES
                        STRESS PERIOD   25   TIME STEP  2763
 --------------- --------------- --------------- --------------- ---------------
     0.41796E+06                                                                
 -------------------------------------------------------------------------------
 
 SOLVING FOR HEAD 
 INITIAL HNEW IS AN EXACT SOLUTION.

 NO OUTPUT CONTROL FOR STRESS PERIOD   25   TIME STEP 2764

 -------------------------------------------------------------------------------
                             SWR1 OUTPUT PRINT TIMES
                        STRESS PERIOD   25   TIME STEP  2764
 --------------- --------------- --------------- --------------- ---------------
     0.41808E+06                                                                
 -------------------------------------------------------------------------------
 
 SOLVING FOR HEAD 
 INITIAL HNEW IS AN EXACT SOLUTION.

 NO OUTPUT CONTROL FOR STRESS PERIOD   25   TIME STEP 2765

 -------------------------------------------------------------------------------
                             SWR1 OUTPUT PRINT TIMES
                        STRESS PERIOD   25   TIME STEP  2765
 --------------- --------------- --------------- --------------- ---------------
     0.41820E+06                                                                
 -------------------------------------------------------------------------------
 
 SOLVING FOR HEAD 
 INITIAL HNEW IS AN EXACT SOLUTION.

 NO OUTPUT CONTROL FOR STRESS PERIOD   25   TIME STEP 2766

 -------------------------------------------------------------------------------
                             SWR1 OUTPUT PRINT TIMES
                        STRESS PERIOD   25   TIME STEP  2766
 --------------- --------------- --------------- --------------- ---------------
     0.41832E+06                                                                
 -------------------------------------------------------------------------------
 
 SOLVING FOR HEAD 
 INITIAL HNEW IS AN EXACT SOLUTION.

 NO OUTPUT CONTROL FOR STRESS PERIOD   25   TIME STEP 2767

 -------------------------------------------------------------------------------
                             SWR1 OUTPUT PRINT TIMES
                        STRESS PERIOD   25   TIME STEP  2767
 --------------- --------------- --------------- --------------- ---------------
     0.41844E+06                                                                
 -------------------------------------------------------------------------------
 
 SOLVING FOR HEAD 
 INITIAL HNEW IS AN EXACT SOLUTION.

 NO OUTPUT CONTROL FOR STRESS PERIOD   25   TIME STEP 2768

 -------------------------------------------------------------------------------
                             SWR1 OUTPUT PRINT TIMES
                        STRESS PERIOD   25   TIME STEP  2768
 --------------- --------------- --------------- --------------- ---------------
     0.41856E+06                                                                
 -------------------------------------------------------------------------------
 
 SOLVING FOR HEAD 
 INITIAL HNEW IS AN EXACT SOLUTION.

 NO OUTPUT CONTROL FOR STRESS PERIOD   25   TIME STEP 2769

 -------------------------------------------------------------------------------
                             SWR1 OUTPUT PRINT TIMES
                        STRESS PERIOD   25   TIME STEP  2769
 --------------- --------------- --------------- --------------- ---------------
     0.41868E+06                                                                
 -------------------------------------------------------------------------------
 
 SOLVING FOR HEAD 
 INITIAL HNEW IS AN EXACT SOLUTION.

 NO OUTPUT CONTROL FOR STRESS PERIOD   25   TIME STEP 2770

 -------------------------------------------------------------------------------
                             SWR1 OUTPUT PRINT TIMES
                        STRESS PERIOD   25   TIME STEP  2770
 --------------- --------------- --------------- --------------- ---------------
     0.41880E+06                                                                
 -------------------------------------------------------------------------------
 
 SOLVING FOR HEAD 
 INITIAL HNEW IS AN EXACT SOLUTION.

 NO OUTPUT CONTROL FOR STRESS PERIOD   25   TIME STEP 2771

 -------------------------------------------------------------------------------
                             SWR1 OUTPUT PRINT TIMES
                        STRESS PERIOD   25   TIME STEP  2771
 --------------- --------------- --------------- --------------- ---------------
     0.41892E+06                                                                
 -------------------------------------------------------------------------------
 
 SOLVING FOR HEAD 
 INITIAL HNEW IS AN EXACT SOLUTION.

 NO OUTPUT CONTROL FOR STRESS PERIOD   25   TIME STEP 2772

 -------------------------------------------------------------------------------
                             SWR1 OUTPUT PRINT TIMES
                        STRESS PERIOD   25   TIME STEP  2772
 --------------- --------------- --------------- --------------- ---------------
     0.41904E+06                                                                
 -------------------------------------------------------------------------------
 
 SOLVING FOR HEAD 
 INITIAL HNEW IS AN EXACT SOLUTION.

 NO OUTPUT CONTROL FOR STRESS PERIOD   25   TIME STEP 2773

 -------------------------------------------------------------------------------
                             SWR1 OUTPUT PRINT TIMES
                        STRESS PERIOD   25   TIME STEP  2773
 --------------- --------------- --------------- --------------- ---------------
     0.41916E+06                                                                
 -------------------------------------------------------------------------------
 
 SOLVING FOR HEAD 
 INITIAL HNEW IS AN EXACT SOLUTION.

 NO OUTPUT CONTROL FOR STRESS PERIOD   25   TIME STEP 2774

 -------------------------------------------------------------------------------
                             SWR1 OUTPUT PRINT TIMES
                        STRESS PERIOD   25   TIME STEP  2774
 --------------- --------------- --------------- --------------- ---------------
     0.41928E+06                                                                
 -------------------------------------------------------------------------------
 
 SOLVING FOR HEAD 
 INITIAL HNEW IS AN EXACT SOLUTION.

 NO OUTPUT CONTROL FOR STRESS PERIOD   25   TIME STEP 2775

 -------------------------------------------------------------------------------
                             SWR1 OUTPUT PRINT TIMES
                        STRESS PERIOD   25   TIME STEP  2775
 --------------- --------------- --------------- --------------- ---------------
     0.41940E+06                                                                
 -------------------------------------------------------------------------------
 
 SOLVING FOR HEAD 
 INITIAL HNEW IS AN EXACT SOLUTION.

 NO OUTPUT CONTROL FOR STRESS PERIOD   25   TIME STEP 2776

 -------------------------------------------------------------------------------
                             SWR1 OUTPUT PRINT TIMES
                        STRESS PERIOD   25   TIME STEP  2776
 --------------- --------------- --------------- --------------- ---------------
     0.41952E+06                                                                
 -------------------------------------------------------------------------------
 
 SOLVING FOR HEAD 
 INITIAL HNEW IS AN EXACT SOLUTION.

 NO OUTPUT CONTROL FOR STRESS PERIOD   25   TIME STEP 2777

 -------------------------------------------------------------------------------
                             SWR1 OUTPUT PRINT TIMES
                        STRESS PERIOD   25   TIME STEP  2777
 --------------- --------------- --------------- --------------- ---------------
     0.41964E+06                                                                
 -------------------------------------------------------------------------------
 
 SOLVING FOR HEAD 
 INITIAL HNEW IS AN EXACT SOLUTION.

 NO OUTPUT CONTROL FOR STRESS PERIOD   25   TIME STEP 2778

 -------------------------------------------------------------------------------
                             SWR1 OUTPUT PRINT TIMES
                        STRESS PERIOD   25   TIME STEP  2778
 --------------- --------------- --------------- --------------- ---------------
     0.41976E+06                                                                
 -------------------------------------------------------------------------------
 
 SOLVING FOR HEAD 
 INITIAL HNEW IS AN EXACT SOLUTION.

 NO OUTPUT CONTROL FOR STRESS PERIOD   25   TIME STEP 2779

 -------------------------------------------------------------------------------
                             SWR1 OUTPUT PRINT TIMES
                        STRESS PERIOD   25   TIME STEP  2779
 --------------- --------------- --------------- --------------- ---------------
     0.41988E+06                                                                
 -------------------------------------------------------------------------------
 
 SOLVING FOR HEAD 
 INITIAL HNEW IS AN EXACT SOLUTION.

 NO OUTPUT CONTROL FOR STRESS PERIOD   25   TIME STEP 2780

 -------------------------------------------------------------------------------
                             SWR1 OUTPUT PRINT TIMES
                        STRESS PERIOD   25   TIME STEP  2780
 --------------- --------------- --------------- --------------- ---------------
     0.42000E+06                                                                
 -------------------------------------------------------------------------------
 
 SOLVING FOR HEAD 
 INITIAL HNEW IS AN EXACT SOLUTION.

 NO OUTPUT CONTROL FOR STRESS PERIOD   25   TIME STEP 2781

 -------------------------------------------------------------------------------
                             SWR1 OUTPUT PRINT TIMES
                        STRESS PERIOD   25   TIME STEP  2781
 --------------- --------------- --------------- --------------- ---------------
     0.42012E+06                                                                
 -------------------------------------------------------------------------------
 
 SOLVING FOR HEAD 
 INITIAL HNEW IS AN EXACT SOLUTION.

 NO OUTPUT CONTROL FOR STRESS PERIOD   25   TIME STEP 2782

 -------------------------------------------------------------------------------
                             SWR1 OUTPUT PRINT TIMES
                        STRESS PERIOD   25   TIME STEP  2782
 --------------- --------------- --------------- --------------- ---------------
     0.42024E+06                                                                
 -------------------------------------------------------------------------------
 
 SOLVING FOR HEAD 
 INITIAL HNEW IS AN EXACT SOLUTION.

 NO OUTPUT CONTROL FOR STRESS PERIOD   25   TIME STEP 2783

 -------------------------------------------------------------------------------
                             SWR1 OUTPUT PRINT TIMES
                        STRESS PERIOD   25   TIME STEP  2783
 --------------- --------------- --------------- --------------- ---------------
     0.42036E+06                                                                
 -------------------------------------------------------------------------------
 
 SOLVING FOR HEAD 
 INITIAL HNEW IS AN EXACT SOLUTION.

 NO OUTPUT CONTROL FOR STRESS PERIOD   25   TIME STEP 2784

 -------------------------------------------------------------------------------
                             SWR1 OUTPUT PRINT TIMES
                        STRESS PERIOD   25   TIME STEP  2784
 --------------- --------------- --------------- --------------- ---------------
     0.42048E+06                                                                
 -------------------------------------------------------------------------------
 
 SOLVING FOR HEAD 
 INITIAL HNEW IS AN EXACT SOLUTION.

 NO OUTPUT CONTROL FOR STRESS PERIOD   25   TIME STEP 2785

 -------------------------------------------------------------------------------
                             SWR1 OUTPUT PRINT TIMES
                        STRESS PERIOD   25   TIME STEP  2785
 --------------- --------------- --------------- --------------- ---------------
     0.42060E+06                                                                
 -------------------------------------------------------------------------------
 
 SOLVING FOR HEAD 
 INITIAL HNEW IS AN EXACT SOLUTION.

 NO OUTPUT CONTROL FOR STRESS PERIOD   25   TIME STEP 2786

 -------------------------------------------------------------------------------
                             SWR1 OUTPUT PRINT TIMES
                        STRESS PERIOD   25   TIME STEP  2786
 --------------- --------------- --------------- --------------- ---------------
     0.42072E+06                                                                
 -------------------------------------------------------------------------------
 
 SOLVING FOR HEAD 
 INITIAL HNEW IS AN EXACT SOLUTION.

 NO OUTPUT CONTROL FOR STRESS PERIOD   25   TIME STEP 2787

 -------------------------------------------------------------------------------
                             SWR1 OUTPUT PRINT TIMES
                        STRESS PERIOD   25   TIME STEP  2787
 --------------- --------------- --------------- --------------- ---------------
     0.42084E+06                                                                
 -------------------------------------------------------------------------------
 
 SOLVING FOR HEAD 
 INITIAL HNEW IS AN EXACT SOLUTION.

 NO OUTPUT CONTROL FOR STRESS PERIOD   25   TIME STEP 2788

 -------------------------------------------------------------------------------
                             SWR1 OUTPUT PRINT TIMES
                        STRESS PERIOD   25   TIME STEP  2788
 --------------- --------------- --------------- --------------- ---------------
     0.42096E+06                                                                
 -------------------------------------------------------------------------------
 
 SOLVING FOR HEAD 
 INITIAL HNEW IS AN EXACT SOLUTION.

 NO OUTPUT CONTROL FOR STRESS PERIOD   25   TIME STEP 2789

 -------------------------------------------------------------------------------
                             SWR1 OUTPUT PRINT TIMES
                        STRESS PERIOD   25   TIME STEP  2789
 --------------- --------------- --------------- --------------- ---------------
     0.42108E+06                                                                
 -------------------------------------------------------------------------------
 
 SOLVING FOR HEAD 
 INITIAL HNEW IS AN EXACT SOLUTION.

 NO OUTPUT CONTROL FOR STRESS PERIOD   25   TIME STEP 2790

 -------------------------------------------------------------------------------
                             SWR1 OUTPUT PRINT TIMES
                        STRESS PERIOD   25   TIME STEP  2790
 --------------- --------------- --------------- --------------- ---------------
     0.42120E+06                                                                
 -------------------------------------------------------------------------------
 
 SOLVING FOR HEAD 
 INITIAL HNEW IS AN EXACT SOLUTION.

 NO OUTPUT CONTROL FOR STRESS PERIOD   25   TIME STEP 2791

 -------------------------------------------------------------------------------
                             SWR1 OUTPUT PRINT TIMES
                        STRESS PERIOD   25   TIME STEP  2791
 --------------- --------------- --------------- --------------- ---------------
     0.42132E+06                                                                
 -------------------------------------------------------------------------------
 
 SOLVING FOR HEAD 
 INITIAL HNEW IS AN EXACT SOLUTION.

 NO OUTPUT CONTROL FOR STRESS PERIOD   25   TIME STEP 2792

 -------------------------------------------------------------------------------
                             SWR1 OUTPUT PRINT TIMES
                        STRESS PERIOD   25   TIME STEP  2792
 --------------- --------------- --------------- --------------- ---------------
     0.42144E+06                                                                
 -------------------------------------------------------------------------------
 
 SOLVING FOR HEAD 
 INITIAL HNEW IS AN EXACT SOLUTION.

 NO OUTPUT CONTROL FOR STRESS PERIOD   25   TIME STEP 2793

 -------------------------------------------------------------------------------
                             SWR1 OUTPUT PRINT TIMES
                        STRESS PERIOD   25   TIME STEP  2793
 --------------- --------------- --------------- --------------- ---------------
     0.42156E+06                                                                
 -------------------------------------------------------------------------------
 
 SOLVING FOR HEAD 
 INITIAL HNEW IS AN EXACT SOLUTION.

 NO OUTPUT CONTROL FOR STRESS PERIOD   25   TIME STEP 2794

 -------------------------------------------------------------------------------
                             SWR1 OUTPUT PRINT TIMES
                        STRESS PERIOD   25   TIME STEP  2794
 --------------- --------------- --------------- --------------- ---------------
     0.42168E+06                                                                
 -------------------------------------------------------------------------------
 
 SOLVING FOR HEAD 
 INITIAL HNEW IS AN EXACT SOLUTION.

 NO OUTPUT CONTROL FOR STRESS PERIOD   25   TIME STEP 2795

 -------------------------------------------------------------------------------
                             SWR1 OUTPUT PRINT TIMES
                        STRESS PERIOD   25   TIME STEP  2795
 --------------- --------------- --------------- --------------- ---------------
     0.42180E+06                                                                
 -------------------------------------------------------------------------------
 
 SOLVING FOR HEAD 
 INITIAL HNEW IS AN EXACT SOLUTION.

 NO OUTPUT CONTROL FOR STRESS PERIOD   25   TIME STEP 2796

 -------------------------------------------------------------------------------
                             SWR1 OUTPUT PRINT TIMES
                        STRESS PERIOD   25   TIME STEP  2796
 --------------- --------------- --------------- --------------- ---------------
     0.42192E+06                                                                
 -------------------------------------------------------------------------------
 
 SOLVING FOR HEAD 
 INITIAL HNEW IS AN EXACT SOLUTION.

 NO OUTPUT CONTROL FOR STRESS PERIOD   25   TIME STEP 2797

 -------------------------------------------------------------------------------
                             SWR1 OUTPUT PRINT TIMES
                        STRESS PERIOD   25   TIME STEP  2797
 --------------- --------------- --------------- --------------- ---------------
     0.42204E+06                                                                
 -------------------------------------------------------------------------------
 
 SOLVING FOR HEAD 
 INITIAL HNEW IS AN EXACT SOLUTION.

 NO OUTPUT CONTROL FOR STRESS PERIOD   25   TIME STEP 2798

 -------------------------------------------------------------------------------
                             SWR1 OUTPUT PRINT TIMES
                        STRESS PERIOD   25   TIME STEP  2798
 --------------- --------------- --------------- --------------- ---------------
     0.42216E+06                                                                
 -------------------------------------------------------------------------------
 
 SOLVING FOR HEAD 
 INITIAL HNEW IS AN EXACT SOLUTION.

 NO OUTPUT CONTROL FOR STRESS PERIOD   25   TIME STEP 2799

 -------------------------------------------------------------------------------
                             SWR1 OUTPUT PRINT TIMES
                        STRESS PERIOD   25   TIME STEP  2799
 --------------- --------------- --------------- --------------- ---------------
     0.42228E+06                                                                
 -------------------------------------------------------------------------------
 
 SOLVING FOR HEAD 
 INITIAL HNEW IS AN EXACT SOLUTION.

 NO OUTPUT CONTROL FOR STRESS PERIOD   25   TIME STEP 2800

 -------------------------------------------------------------------------------
                             SWR1 OUTPUT PRINT TIMES
                        STRESS PERIOD   25   TIME STEP  2800
 --------------- --------------- --------------- --------------- ---------------
     0.42240E+06                                                                
 -------------------------------------------------------------------------------
 
 SOLVING FOR HEAD 
 INITIAL HNEW IS AN EXACT SOLUTION.

 NO OUTPUT CONTROL FOR STRESS PERIOD   25   TIME STEP 2801

 -------------------------------------------------------------------------------
                             SWR1 OUTPUT PRINT TIMES
                        STRESS PERIOD   25   TIME STEP  2801
 --------------- --------------- --------------- --------------- ---------------
     0.42252E+06                                                                
 -------------------------------------------------------------------------------
 
 SOLVING FOR HEAD 
 INITIAL HNEW IS AN EXACT SOLUTION.

 NO OUTPUT CONTROL FOR STRESS PERIOD   25   TIME STEP 2802

 -------------------------------------------------------------------------------
                             SWR1 OUTPUT PRINT TIMES
                        STRESS PERIOD   25   TIME STEP  2802
 --------------- --------------- --------------- --------------- ---------------
     0.42264E+06                                                                
 -------------------------------------------------------------------------------
 
 SOLVING FOR HEAD 
 INITIAL HNEW IS AN EXACT SOLUTION.

 NO OUTPUT CONTROL FOR STRESS PERIOD   25   TIME STEP 2803

 -------------------------------------------------------------------------------
                             SWR1 OUTPUT PRINT TIMES
                        STRESS PERIOD   25   TIME STEP  2803
 --------------- --------------- --------------- --------------- ---------------
     0.42276E+06                                                                
 -------------------------------------------------------------------------------
 
 SOLVING FOR HEAD 
 INITIAL HNEW IS AN EXACT SOLUTION.

 NO OUTPUT CONTROL FOR STRESS PERIOD   25   TIME STEP 2804

 -------------------------------------------------------------------------------
                             SWR1 OUTPUT PRINT TIMES
                        STRESS PERIOD   25   TIME STEP  2804
 --------------- --------------- --------------- --------------- ---------------
     0.42288E+06                                                                
 -------------------------------------------------------------------------------
 
 SOLVING FOR HEAD 
 INITIAL HNEW IS AN EXACT SOLUTION.

 NO OUTPUT CONTROL FOR STRESS PERIOD   25   TIME STEP 2805

 -------------------------------------------------------------------------------
                             SWR1 OUTPUT PRINT TIMES
                        STRESS PERIOD   25   TIME STEP  2805
 --------------- --------------- --------------- --------------- ---------------
     0.42300E+06                                                                
 -------------------------------------------------------------------------------
 
 SOLVING FOR HEAD 
 INITIAL HNEW IS AN EXACT SOLUTION.

 NO OUTPUT CONTROL FOR STRESS PERIOD   25   TIME STEP 2806

 -------------------------------------------------------------------------------
                             SWR1 OUTPUT PRINT TIMES
                        STRESS PERIOD   25   TIME STEP  2806
 --------------- --------------- --------------- --------------- ---------------
     0.42312E+06                                                                
 -------------------------------------------------------------------------------
 
 SOLVING FOR HEAD 
 INITIAL HNEW IS AN EXACT SOLUTION.

 NO OUTPUT CONTROL FOR STRESS PERIOD   25   TIME STEP 2807

 -------------------------------------------------------------------------------
                             SWR1 OUTPUT PRINT TIMES
                        STRESS PERIOD   25   TIME STEP  2807
 --------------- --------------- --------------- --------------- ---------------
     0.42324E+06                                                                
 -------------------------------------------------------------------------------
 
 SOLVING FOR HEAD 
 INITIAL HNEW IS AN EXACT SOLUTION.

 NO OUTPUT CONTROL FOR STRESS PERIOD   25   TIME STEP 2808

 -------------------------------------------------------------------------------
                             SWR1 OUTPUT PRINT TIMES
                        STRESS PERIOD   25   TIME STEP  2808
 --------------- --------------- --------------- --------------- ---------------
     0.42336E+06                                                                
 -------------------------------------------------------------------------------
 
 SOLVING FOR HEAD 
 INITIAL HNEW IS AN EXACT SOLUTION.

 NO OUTPUT CONTROL FOR STRESS PERIOD   25   TIME STEP 2809

 -------------------------------------------------------------------------------
                             SWR1 OUTPUT PRINT TIMES
                        STRESS PERIOD   25   TIME STEP  2809
 --------------- --------------- --------------- --------------- ---------------
     0.42348E+06                                                                
 -------------------------------------------------------------------------------
 
 SOLVING FOR HEAD 
 INITIAL HNEW IS AN EXACT SOLUTION.

 NO OUTPUT CONTROL FOR STRESS PERIOD   25   TIME STEP 2810

 -------------------------------------------------------------------------------
                             SWR1 OUTPUT PRINT TIMES
                        STRESS PERIOD   25   TIME STEP  2810
 --------------- --------------- --------------- --------------- ---------------
     0.42360E+06                                                                
 -------------------------------------------------------------------------------
 
 SOLVING FOR HEAD 
 INITIAL HNEW IS AN EXACT SOLUTION.

 NO OUTPUT CONTROL FOR STRESS PERIOD   25   TIME STEP 2811

 -------------------------------------------------------------------------------
                             SWR1 OUTPUT PRINT TIMES
                        STRESS PERIOD   25   TIME STEP  2811
 --------------- --------------- --------------- --------------- ---------------
     0.42372E+06                                                                
 -------------------------------------------------------------------------------
 
 SOLVING FOR HEAD 
 INITIAL HNEW IS AN EXACT SOLUTION.

 NO OUTPUT CONTROL FOR STRESS PERIOD   25   TIME STEP 2812

 -------------------------------------------------------------------------------
                             SWR1 OUTPUT PRINT TIMES
                        STRESS PERIOD   25   TIME STEP  2812
 --------------- --------------- --------------- --------------- ---------------
     0.42384E+06                                                                
 -------------------------------------------------------------------------------
 
 SOLVING FOR HEAD 
 INITIAL HNEW IS AN EXACT SOLUTION.

 NO OUTPUT CONTROL FOR STRESS PERIOD   25   TIME STEP 2813

 -------------------------------------------------------------------------------
                             SWR1 OUTPUT PRINT TIMES
                        STRESS PERIOD   25   TIME STEP  2813
 --------------- --------------- --------------- --------------- ---------------
     0.42396E+06                                                                
 -------------------------------------------------------------------------------
 
 SOLVING FOR HEAD 
 INITIAL HNEW IS AN EXACT SOLUTION.

 NO OUTPUT CONTROL FOR STRESS PERIOD   25   TIME STEP 2814

 -------------------------------------------------------------------------------
                             SWR1 OUTPUT PRINT TIMES
                        STRESS PERIOD   25   TIME STEP  2814
 --------------- --------------- --------------- --------------- ---------------
     0.42408E+06                                                                
 -------------------------------------------------------------------------------
 
 SOLVING FOR HEAD 
 INITIAL HNEW IS AN EXACT SOLUTION.

 NO OUTPUT CONTROL FOR STRESS PERIOD   25   TIME STEP 2815

 -------------------------------------------------------------------------------
                             SWR1 OUTPUT PRINT TIMES
                        STRESS PERIOD   25   TIME STEP  2815
 --------------- --------------- --------------- --------------- ---------------
     0.42420E+06                                                                
 -------------------------------------------------------------------------------
 
 SOLVING FOR HEAD 
 INITIAL HNEW IS AN EXACT SOLUTION.

 NO OUTPUT CONTROL FOR STRESS PERIOD   25   TIME STEP 2816

 -------------------------------------------------------------------------------
                             SWR1 OUTPUT PRINT TIMES
                        STRESS PERIOD   25   TIME STEP  2816
 --------------- --------------- --------------- --------------- ---------------
     0.42432E+06                                                                
 -------------------------------------------------------------------------------
 
 SOLVING FOR HEAD 
 INITIAL HNEW IS AN EXACT SOLUTION.

 NO OUTPUT CONTROL FOR STRESS PERIOD   25   TIME STEP 2817

 -------------------------------------------------------------------------------
                             SWR1 OUTPUT PRINT TIMES
                        STRESS PERIOD   25   TIME STEP  2817
 --------------- --------------- --------------- --------------- ---------------
     0.42444E+06                                                                
 -------------------------------------------------------------------------------
 
 SOLVING FOR HEAD 
 INITIAL HNEW IS AN EXACT SOLUTION.

 NO OUTPUT CONTROL FOR STRESS PERIOD   25   TIME STEP 2818

 -------------------------------------------------------------------------------
                             SWR1 OUTPUT PRINT TIMES
                        STRESS PERIOD   25   TIME STEP  2818
 --------------- --------------- --------------- --------------- ---------------
     0.42456E+06                                                                
 -------------------------------------------------------------------------------
 
 SOLVING FOR HEAD 
 INITIAL HNEW IS AN EXACT SOLUTION.

 NO OUTPUT CONTROL FOR STRESS PERIOD   25   TIME STEP 2819

 -------------------------------------------------------------------------------
                             SWR1 OUTPUT PRINT TIMES
                        STRESS PERIOD   25   TIME STEP  2819
 --------------- --------------- --------------- --------------- ---------------
     0.42468E+06                                                                
 -------------------------------------------------------------------------------
 
 SOLVING FOR HEAD 
 INITIAL HNEW IS AN EXACT SOLUTION.

 NO OUTPUT CONTROL FOR STRESS PERIOD   25   TIME STEP 2820

 -------------------------------------------------------------------------------
                             SWR1 OUTPUT PRINT TIMES
                        STRESS PERIOD   25   TIME STEP  2820
 --------------- --------------- --------------- --------------- ---------------
     0.42480E+06                                                                
 -------------------------------------------------------------------------------
 
 SOLVING FOR HEAD 
 INITIAL HNEW IS AN EXACT SOLUTION.

 NO OUTPUT CONTROL FOR STRESS PERIOD   25   TIME STEP 2821

 -------------------------------------------------------------------------------
                             SWR1 OUTPUT PRINT TIMES
                        STRESS PERIOD   25   TIME STEP  2821
 --------------- --------------- --------------- --------------- ---------------
     0.42492E+06                                                                
 -------------------------------------------------------------------------------
 
 SOLVING FOR HEAD 
 INITIAL HNEW IS AN EXACT SOLUTION.

 NO OUTPUT CONTROL FOR STRESS PERIOD   25   TIME STEP 2822

 -------------------------------------------------------------------------------
                             SWR1 OUTPUT PRINT TIMES
                        STRESS PERIOD   25   TIME STEP  2822
 --------------- --------------- --------------- --------------- ---------------
     0.42504E+06                                                                
 -------------------------------------------------------------------------------
 
 SOLVING FOR HEAD 
 INITIAL HNEW IS AN EXACT SOLUTION.

 NO OUTPUT CONTROL FOR STRESS PERIOD   25   TIME STEP 2823

 -------------------------------------------------------------------------------
                             SWR1 OUTPUT PRINT TIMES
                        STRESS PERIOD   25   TIME STEP  2823
 --------------- --------------- --------------- --------------- ---------------
     0.42516E+06                                                                
 -------------------------------------------------------------------------------
 
 SOLVING FOR HEAD 
 INITIAL HNEW IS AN EXACT SOLUTION.

 NO OUTPUT CONTROL FOR STRESS PERIOD   25   TIME STEP 2824

 -------------------------------------------------------------------------------
                             SWR1 OUTPUT PRINT TIMES
                        STRESS PERIOD   25   TIME STEP  2824
 --------------- --------------- --------------- --------------- ---------------
     0.42528E+06                                                                
 -------------------------------------------------------------------------------
 
 SOLVING FOR HEAD 
 INITIAL HNEW IS AN EXACT SOLUTION.

 NO OUTPUT CONTROL FOR STRESS PERIOD   25   TIME STEP 2825

 -------------------------------------------------------------------------------
                             SWR1 OUTPUT PRINT TIMES
                        STRESS PERIOD   25   TIME STEP  2825
 --------------- --------------- --------------- --------------- ---------------
     0.42540E+06                                                                
 -------------------------------------------------------------------------------
 
 SOLVING FOR HEAD 
 INITIAL HNEW IS AN EXACT SOLUTION.

 NO OUTPUT CONTROL FOR STRESS PERIOD   25   TIME STEP 2826

 -------------------------------------------------------------------------------
                             SWR1 OUTPUT PRINT TIMES
                        STRESS PERIOD   25   TIME STEP  2826
 --------------- --------------- --------------- --------------- ---------------
     0.42552E+06                                                                
 -------------------------------------------------------------------------------
 
 SOLVING FOR HEAD 
 INITIAL HNEW IS AN EXACT SOLUTION.

 NO OUTPUT CONTROL FOR STRESS PERIOD   25   TIME STEP 2827

 -------------------------------------------------------------------------------
                             SWR1 OUTPUT PRINT TIMES
                        STRESS PERIOD   25   TIME STEP  2827
 --------------- --------------- --------------- --------------- ---------------
     0.42564E+06                                                                
 -------------------------------------------------------------------------------
 
 SOLVING FOR HEAD 
 INITIAL HNEW IS AN EXACT SOLUTION.

 NO OUTPUT CONTROL FOR STRESS PERIOD   25   TIME STEP 2828

 -------------------------------------------------------------------------------
                             SWR1 OUTPUT PRINT TIMES
                        STRESS PERIOD   25   TIME STEP  2828
 --------------- --------------- --------------- --------------- ---------------
     0.42576E+06                                                                
 -------------------------------------------------------------------------------
 
 SOLVING FOR HEAD 
 INITIAL HNEW IS AN EXACT SOLUTION.

 NO OUTPUT CONTROL FOR STRESS PERIOD   25   TIME STEP 2829

 -------------------------------------------------------------------------------
                             SWR1 OUTPUT PRINT TIMES
                        STRESS PERIOD   25   TIME STEP  2829
 --------------- --------------- --------------- --------------- ---------------
     0.42588E+06                                                                
 -------------------------------------------------------------------------------
 
 SOLVING FOR HEAD 
 INITIAL HNEW IS AN EXACT SOLUTION.

 NO OUTPUT CONTROL FOR STRESS PERIOD   25   TIME STEP 2830

 -------------------------------------------------------------------------------
                             SWR1 OUTPUT PRINT TIMES
                        STRESS PERIOD   25   TIME STEP  2830
 --------------- --------------- --------------- --------------- ---------------
     0.42600E+06                                                                
 -------------------------------------------------------------------------------
 
 SOLVING FOR HEAD 
 INITIAL HNEW IS AN EXACT SOLUTION.

 NO OUTPUT CONTROL FOR STRESS PERIOD   25   TIME STEP 2831

 -------------------------------------------------------------------------------
                             SWR1 OUTPUT PRINT TIMES
                        STRESS PERIOD   25   TIME STEP  2831
 --------------- --------------- --------------- --------------- ---------------
     0.42612E+06                                                                
 -------------------------------------------------------------------------------
 
 SOLVING FOR HEAD 
 INITIAL HNEW IS AN EXACT SOLUTION.

 NO OUTPUT CONTROL FOR STRESS PERIOD   25   TIME STEP 2832

 -------------------------------------------------------------------------------
                             SWR1 OUTPUT PRINT TIMES
                        STRESS PERIOD   25   TIME STEP  2832
 --------------- --------------- --------------- --------------- ---------------
     0.42624E+06                                                                
 -------------------------------------------------------------------------------
 
 SOLVING FOR HEAD 
 INITIAL HNEW IS AN EXACT SOLUTION.

 NO OUTPUT CONTROL FOR STRESS PERIOD   25   TIME STEP 2833

 -------------------------------------------------------------------------------
                             SWR1 OUTPUT PRINT TIMES
                        STRESS PERIOD   25   TIME STEP  2833
 --------------- --------------- --------------- --------------- ---------------
     0.42636E+06                                                                
 -------------------------------------------------------------------------------
 
 SOLVING FOR HEAD 
 INITIAL HNEW IS AN EXACT SOLUTION.

 NO OUTPUT CONTROL FOR STRESS PERIOD   25   TIME STEP 2834

 -------------------------------------------------------------------------------
                             SWR1 OUTPUT PRINT TIMES
                        STRESS PERIOD   25   TIME STEP  2834
 --------------- --------------- --------------- --------------- ---------------
     0.42648E+06                                                                
 -------------------------------------------------------------------------------
 
 SOLVING FOR HEAD 
 INITIAL HNEW IS AN EXACT SOLUTION.

 NO OUTPUT CONTROL FOR STRESS PERIOD   25   TIME STEP 2835

 -------------------------------------------------------------------------------
                             SWR1 OUTPUT PRINT TIMES
                        STRESS PERIOD   25   TIME STEP  2835
 --------------- --------------- --------------- --------------- ---------------
     0.42660E+06                                                                
 -------------------------------------------------------------------------------
 
 SOLVING FOR HEAD 
 INITIAL HNEW IS AN EXACT SOLUTION.

 NO OUTPUT CONTROL FOR STRESS PERIOD   25   TIME STEP 2836

 -------------------------------------------------------------------------------
                             SWR1 OUTPUT PRINT TIMES
                        STRESS PERIOD   25   TIME STEP  2836
 --------------- --------------- --------------- --------------- ---------------
     0.42672E+06                                                                
 -------------------------------------------------------------------------------
 
 SOLVING FOR HEAD 
 INITIAL HNEW IS AN EXACT SOLUTION.

 NO OUTPUT CONTROL FOR STRESS PERIOD   25   TIME STEP 2837

 -------------------------------------------------------------------------------
                             SWR1 OUTPUT PRINT TIMES
                        STRESS PERIOD   25   TIME STEP  2837
 --------------- --------------- --------------- --------------- ---------------
     0.42684E+06                                                                
 -------------------------------------------------------------------------------
 
 SOLVING FOR HEAD 
 INITIAL HNEW IS AN EXACT SOLUTION.

 NO OUTPUT CONTROL FOR STRESS PERIOD   25   TIME STEP 2838

 -------------------------------------------------------------------------------
                             SWR1 OUTPUT PRINT TIMES
                        STRESS PERIOD   25   TIME STEP  2838
 --------------- --------------- --------------- --------------- ---------------
     0.42696E+06                                                                
 -------------------------------------------------------------------------------
 
 SOLVING FOR HEAD 
 INITIAL HNEW IS AN EXACT SOLUTION.

 NO OUTPUT CONTROL FOR STRESS PERIOD   25   TIME STEP 2839

 -------------------------------------------------------------------------------
                             SWR1 OUTPUT PRINT TIMES
                        STRESS PERIOD   25   TIME STEP  2839
 --------------- --------------- --------------- --------------- ---------------
     0.42708E+06                                                                
 -------------------------------------------------------------------------------
 
 SOLVING FOR HEAD 
 INITIAL HNEW IS AN EXACT SOLUTION.

 NO OUTPUT CONTROL FOR STRESS PERIOD   25   TIME STEP 2840

 -------------------------------------------------------------------------------
                             SWR1 OUTPUT PRINT TIMES
                        STRESS PERIOD   25   TIME STEP  2840
 --------------- --------------- --------------- --------------- ---------------
     0.42720E+06                                                                
 -------------------------------------------------------------------------------
 
 SOLVING FOR HEAD 
 INITIAL HNEW IS AN EXACT SOLUTION.

 NO OUTPUT CONTROL FOR STRESS PERIOD   25   TIME STEP 2841

 -------------------------------------------------------------------------------
                             SWR1 OUTPUT PRINT TIMES
                        STRESS PERIOD   25   TIME STEP  2841
 --------------- --------------- --------------- --------------- ---------------
     0.42732E+06                                                                
 -------------------------------------------------------------------------------
 
 SOLVING FOR HEAD 
 INITIAL HNEW IS AN EXACT SOLUTION.

 NO OUTPUT CONTROL FOR STRESS PERIOD   25   TIME STEP 2842

 -------------------------------------------------------------------------------
                             SWR1 OUTPUT PRINT TIMES
                        STRESS PERIOD   25   TIME STEP  2842
 --------------- --------------- --------------- --------------- ---------------
     0.42744E+06                                                                
 -------------------------------------------------------------------------------
 
 SOLVING FOR HEAD 
 INITIAL HNEW IS AN EXACT SOLUTION.

 NO OUTPUT CONTROL FOR STRESS PERIOD   25   TIME STEP 2843

 -------------------------------------------------------------------------------
                             SWR1 OUTPUT PRINT TIMES
                        STRESS PERIOD   25   TIME STEP  2843
 --------------- --------------- --------------- --------------- ---------------
     0.42756E+06                                                                
 -------------------------------------------------------------------------------
 
 SOLVING FOR HEAD 
 INITIAL HNEW IS AN EXACT SOLUTION.

 NO OUTPUT CONTROL FOR STRESS PERIOD   25   TIME STEP 2844

 -------------------------------------------------------------------------------
                             SWR1 OUTPUT PRINT TIMES
                        STRESS PERIOD   25   TIME STEP  2844
 --------------- --------------- --------------- --------------- ---------------
     0.42768E+06                                                                
 -------------------------------------------------------------------------------
 
 SOLVING FOR HEAD 
 INITIAL HNEW IS AN EXACT SOLUTION.

 NO OUTPUT CONTROL FOR STRESS PERIOD   25   TIME STEP 2845

 -------------------------------------------------------------------------------
                             SWR1 OUTPUT PRINT TIMES
                        STRESS PERIOD   25   TIME STEP  2845
 --------------- --------------- --------------- --------------- ---------------
     0.42780E+06                                                                
 -------------------------------------------------------------------------------
 
 SOLVING FOR HEAD 
 INITIAL HNEW IS AN EXACT SOLUTION.

 NO OUTPUT CONTROL FOR STRESS PERIOD   25   TIME STEP 2846

 -------------------------------------------------------------------------------
                             SWR1 OUTPUT PRINT TIMES
                        STRESS PERIOD   25   TIME STEP  2846
 --------------- --------------- --------------- --------------- ---------------
     0.42792E+06                                                                
 -------------------------------------------------------------------------------
 
 SOLVING FOR HEAD 
 INITIAL HNEW IS AN EXACT SOLUTION.

 NO OUTPUT CONTROL FOR STRESS PERIOD   25   TIME STEP 2847

 -------------------------------------------------------------------------------
                             SWR1 OUTPUT PRINT TIMES
                        STRESS PERIOD   25   TIME STEP  2847
 --------------- --------------- --------------- --------------- ---------------
     0.42804E+06                                                                
 -------------------------------------------------------------------------------
 
 SOLVING FOR HEAD 
 INITIAL HNEW IS AN EXACT SOLUTION.

 NO OUTPUT CONTROL FOR STRESS PERIOD   25   TIME STEP 2848

 -------------------------------------------------------------------------------
                             SWR1 OUTPUT PRINT TIMES
                        STRESS PERIOD   25   TIME STEP  2848
 --------------- --------------- --------------- --------------- ---------------
     0.42816E+06                                                                
 -------------------------------------------------------------------------------
 
 SOLVING FOR HEAD 
 INITIAL HNEW IS AN EXACT SOLUTION.

 NO OUTPUT CONTROL FOR STRESS PERIOD   25   TIME STEP 2849

 -------------------------------------------------------------------------------
                             SWR1 OUTPUT PRINT TIMES
                        STRESS PERIOD   25   TIME STEP  2849
 --------------- --------------- --------------- --------------- ---------------
     0.42828E+06                                                                
 -------------------------------------------------------------------------------
 
 SOLVING FOR HEAD 
 INITIAL HNEW IS AN EXACT SOLUTION.

 NO OUTPUT CONTROL FOR STRESS PERIOD   25   TIME STEP 2850

 -------------------------------------------------------------------------------
                             SWR1 OUTPUT PRINT TIMES
                        STRESS PERIOD   25   TIME STEP  2850
 --------------- --------------- --------------- --------------- ---------------
     0.42840E+06                                                                
 -------------------------------------------------------------------------------
 
 SOLVING FOR HEAD 
 INITIAL HNEW IS AN EXACT SOLUTION.

 NO OUTPUT CONTROL FOR STRESS PERIOD   25   TIME STEP 2851

 -------------------------------------------------------------------------------
                             SWR1 OUTPUT PRINT TIMES
                        STRESS PERIOD   25   TIME STEP  2851
 --------------- --------------- --------------- --------------- ---------------
     0.42852E+06                                                                
 -------------------------------------------------------------------------------
 
 SOLVING FOR HEAD 
 INITIAL HNEW IS AN EXACT SOLUTION.

 NO OUTPUT CONTROL FOR STRESS PERIOD   25   TIME STEP 2852

 -------------------------------------------------------------------------------
                             SWR1 OUTPUT PRINT TIMES
                        STRESS PERIOD   25   TIME STEP  2852
 --------------- --------------- --------------- --------------- ---------------
     0.42864E+06                                                                
 -------------------------------------------------------------------------------
 
 SOLVING FOR HEAD 
 INITIAL HNEW IS AN EXACT SOLUTION.

 NO OUTPUT CONTROL FOR STRESS PERIOD   25   TIME STEP 2853

 -------------------------------------------------------------------------------
                             SWR1 OUTPUT PRINT TIMES
                        STRESS PERIOD   25   TIME STEP  2853
 --------------- --------------- --------------- --------------- ---------------
     0.42876E+06                                                                
 -------------------------------------------------------------------------------
 
 SOLVING FOR HEAD 
 INITIAL HNEW IS AN EXACT SOLUTION.

 NO OUTPUT CONTROL FOR STRESS PERIOD   25   TIME STEP 2854

 -------------------------------------------------------------------------------
                             SWR1 OUTPUT PRINT TIMES
                        STRESS PERIOD   25   TIME STEP  2854
 --------------- --------------- --------------- --------------- ---------------
     0.42888E+06                                                                
 -------------------------------------------------------------------------------
 
 SOLVING FOR HEAD 
 INITIAL HNEW IS AN EXACT SOLUTION.

 NO OUTPUT CONTROL FOR STRESS PERIOD   25   TIME STEP 2855

 -------------------------------------------------------------------------------
                             SWR1 OUTPUT PRINT TIMES
                        STRESS PERIOD   25   TIME STEP  2855
 --------------- --------------- --------------- --------------- ---------------
     0.42900E+06                                                                
 -------------------------------------------------------------------------------
 
 SOLVING FOR HEAD 
 INITIAL HNEW IS AN EXACT SOLUTION.

 NO OUTPUT CONTROL FOR STRESS PERIOD   25   TIME STEP 2856

 -------------------------------------------------------------------------------
                             SWR1 OUTPUT PRINT TIMES
                        STRESS PERIOD   25   TIME STEP  2856
 --------------- --------------- --------------- --------------- ---------------
     0.42912E+06                                                                
 -------------------------------------------------------------------------------
 
 SOLVING FOR HEAD 
 INITIAL HNEW IS AN EXACT SOLUTION.

 NO OUTPUT CONTROL FOR STRESS PERIOD   25   TIME STEP 2857

 -------------------------------------------------------------------------------
                             SWR1 OUTPUT PRINT TIMES
                        STRESS PERIOD   25   TIME STEP  2857
 --------------- --------------- --------------- --------------- ---------------
     0.42924E+06                                                                
 -------------------------------------------------------------------------------
 
 SOLVING FOR HEAD 
 INITIAL HNEW IS AN EXACT SOLUTION.

 NO OUTPUT CONTROL FOR STRESS PERIOD   25   TIME STEP 2858

 -------------------------------------------------------------------------------
                             SWR1 OUTPUT PRINT TIMES
                        STRESS PERIOD   25   TIME STEP  2858
 --------------- --------------- --------------- --------------- ---------------
     0.42936E+06                                                                
 -------------------------------------------------------------------------------
 
 SOLVING FOR HEAD 
 INITIAL HNEW IS AN EXACT SOLUTION.

 NO OUTPUT CONTROL FOR STRESS PERIOD   25   TIME STEP 2859

 -------------------------------------------------------------------------------
                             SWR1 OUTPUT PRINT TIMES
                        STRESS PERIOD   25   TIME STEP  2859
 --------------- --------------- --------------- --------------- ---------------
     0.42948E+06                                                                
 -------------------------------------------------------------------------------
 
 SOLVING FOR HEAD 
 INITIAL HNEW IS AN EXACT SOLUTION.

 NO OUTPUT CONTROL FOR STRESS PERIOD   25   TIME STEP 2860

 -------------------------------------------------------------------------------
                             SWR1 OUTPUT PRINT TIMES
                        STRESS PERIOD   25   TIME STEP  2860
 --------------- --------------- --------------- --------------- ---------------
     0.42960E+06                                                                
 -------------------------------------------------------------------------------
 
 SOLVING FOR HEAD 
 INITIAL HNEW IS AN EXACT SOLUTION.

 NO OUTPUT CONTROL FOR STRESS PERIOD   25   TIME STEP 2861

 -------------------------------------------------------------------------------
                             SWR1 OUTPUT PRINT TIMES
                        STRESS PERIOD   25   TIME STEP  2861
 --------------- --------------- --------------- --------------- ---------------
     0.42972E+06                                                                
 -------------------------------------------------------------------------------
 
 SOLVING FOR HEAD 
 INITIAL HNEW IS AN EXACT SOLUTION.

 NO OUTPUT CONTROL FOR STRESS PERIOD   25   TIME STEP 2862

 -------------------------------------------------------------------------------
                             SWR1 OUTPUT PRINT TIMES
                        STRESS PERIOD   25   TIME STEP  2862
 --------------- --------------- --------------- --------------- ---------------
     0.42984E+06                                                                
 -------------------------------------------------------------------------------
 
 SOLVING FOR HEAD 
 INITIAL HNEW IS AN EXACT SOLUTION.

 NO OUTPUT CONTROL FOR STRESS PERIOD   25   TIME STEP 2863

 -------------------------------------------------------------------------------
                             SWR1 OUTPUT PRINT TIMES
                        STRESS PERIOD   25   TIME STEP  2863
 --------------- --------------- --------------- --------------- ---------------
     0.42996E+06                                                                
 -------------------------------------------------------------------------------
 
 SOLVING FOR HEAD 
 INITIAL HNEW IS AN EXACT SOLUTION.

 NO OUTPUT CONTROL FOR STRESS PERIOD   25   TIME STEP 2864

 -------------------------------------------------------------------------------
                             SWR1 OUTPUT PRINT TIMES
                        STRESS PERIOD   25   TIME STEP  2864
 --------------- --------------- --------------- --------------- ---------------
     0.43008E+06                                                                
 -------------------------------------------------------------------------------
 
 SOLVING FOR HEAD 
 INITIAL HNEW IS AN EXACT SOLUTION.

 NO OUTPUT CONTROL FOR STRESS PERIOD   25   TIME STEP 2865

 -------------------------------------------------------------------------------
                             SWR1 OUTPUT PRINT TIMES
                        STRESS PERIOD   25   TIME STEP  2865
 --------------- --------------- --------------- --------------- ---------------
     0.43020E+06                                                                
 -------------------------------------------------------------------------------
 
 SOLVING FOR HEAD 
 INITIAL HNEW IS AN EXACT SOLUTION.

 NO OUTPUT CONTROL FOR STRESS PERIOD   25   TIME STEP 2866

 -------------------------------------------------------------------------------
                             SWR1 OUTPUT PRINT TIMES
                        STRESS PERIOD   25   TIME STEP  2866
 --------------- --------------- --------------- --------------- ---------------
     0.43032E+06                                                                
 -------------------------------------------------------------------------------
 
 SOLVING FOR HEAD 
 INITIAL HNEW IS AN EXACT SOLUTION.

 NO OUTPUT CONTROL FOR STRESS PERIOD   25   TIME STEP 2867

 -------------------------------------------------------------------------------
                             SWR1 OUTPUT PRINT TIMES
                        STRESS PERIOD   25   TIME STEP  2867
 --------------- --------------- --------------- --------------- ---------------
     0.43044E+06                                                                
 -------------------------------------------------------------------------------
 
 SOLVING FOR HEAD 
 INITIAL HNEW IS AN EXACT SOLUTION.

 NO OUTPUT CONTROL FOR STRESS PERIOD   25   TIME STEP 2868

 -------------------------------------------------------------------------------
                             SWR1 OUTPUT PRINT TIMES
                        STRESS PERIOD   25   TIME STEP  2868
 --------------- --------------- --------------- --------------- ---------------
     0.43056E+06                                                                
 -------------------------------------------------------------------------------
 
 SOLVING FOR HEAD 
 INITIAL HNEW IS AN EXACT SOLUTION.

 NO OUTPUT CONTROL FOR STRESS PERIOD   25   TIME STEP 2869

 -------------------------------------------------------------------------------
                             SWR1 OUTPUT PRINT TIMES
                        STRESS PERIOD   25   TIME STEP  2869
 --------------- --------------- --------------- --------------- ---------------
     0.43068E+06                                                                
 -------------------------------------------------------------------------------
 
 SOLVING FOR HEAD 
 INITIAL HNEW IS AN EXACT SOLUTION.

 NO OUTPUT CONTROL FOR STRESS PERIOD   25   TIME STEP 2870

 -------------------------------------------------------------------------------
                             SWR1 OUTPUT PRINT TIMES
                        STRESS PERIOD   25   TIME STEP  2870
 --------------- --------------- --------------- --------------- ---------------
     0.43080E+06                                                                
 -------------------------------------------------------------------------------
 
 SOLVING FOR HEAD 
 INITIAL HNEW IS AN EXACT SOLUTION.

 NO OUTPUT CONTROL FOR STRESS PERIOD   25   TIME STEP 2871

 -------------------------------------------------------------------------------
                             SWR1 OUTPUT PRINT TIMES
                        STRESS PERIOD   25   TIME STEP  2871
 --------------- --------------- --------------- --------------- ---------------
     0.43092E+06                                                                
 -------------------------------------------------------------------------------
 
 SOLVING FOR HEAD 
 INITIAL HNEW IS AN EXACT SOLUTION.

 NO OUTPUT CONTROL FOR STRESS PERIOD   25   TIME STEP 2872

 -------------------------------------------------------------------------------
                             SWR1 OUTPUT PRINT TIMES
                        STRESS PERIOD   25   TIME STEP  2872
 --------------- --------------- --------------- --------------- ---------------
     0.43104E+06                                                                
 -------------------------------------------------------------------------------
 
 SOLVING FOR HEAD 
 INITIAL HNEW IS AN EXACT SOLUTION.

 NO OUTPUT CONTROL FOR STRESS PERIOD   25   TIME STEP 2873

 -------------------------------------------------------------------------------
                             SWR1 OUTPUT PRINT TIMES
                        STRESS PERIOD   25   TIME STEP  2873
 --------------- --------------- --------------- --------------- ---------------
     0.43116E+06                                                                
 -------------------------------------------------------------------------------
 
 SOLVING FOR HEAD 
 INITIAL HNEW IS AN EXACT SOLUTION.

 NO OUTPUT CONTROL FOR STRESS PERIOD   25   TIME STEP 2874

 -------------------------------------------------------------------------------
                             SWR1 OUTPUT PRINT TIMES
                        STRESS PERIOD   25   TIME STEP  2874
 --------------- --------------- --------------- --------------- ---------------
     0.43128E+06                                                                
 -------------------------------------------------------------------------------
 
 SOLVING FOR HEAD 
 INITIAL HNEW IS AN EXACT SOLUTION.

 NO OUTPUT CONTROL FOR STRESS PERIOD   25   TIME STEP 2875

 -------------------------------------------------------------------------------
                             SWR1 OUTPUT PRINT TIMES
                        STRESS PERIOD   25   TIME STEP  2875
 --------------- --------------- --------------- --------------- ---------------
     0.43140E+06                                                                
 -------------------------------------------------------------------------------
 
 SOLVING FOR HEAD 
 INITIAL HNEW IS AN EXACT SOLUTION.

 NO OUTPUT CONTROL FOR STRESS PERIOD   25   TIME STEP 2876

 -------------------------------------------------------------------------------
                             SWR1 OUTPUT PRINT TIMES
                        STRESS PERIOD   25   TIME STEP  2876
 --------------- --------------- --------------- --------------- ---------------
     0.43152E+06                                                                
 -------------------------------------------------------------------------------
 
 SOLVING FOR HEAD 
 INITIAL HNEW IS AN EXACT SOLUTION.

 NO OUTPUT CONTROL FOR STRESS PERIOD   25   TIME STEP 2877

 -------------------------------------------------------------------------------
                             SWR1 OUTPUT PRINT TIMES
                        STRESS PERIOD   25   TIME STEP  2877
 --------------- --------------- --------------- --------------- ---------------
     0.43164E+06                                                                
 -------------------------------------------------------------------------------
 
 SOLVING FOR HEAD 
 INITIAL HNEW IS AN EXACT SOLUTION.

 NO OUTPUT CONTROL FOR STRESS PERIOD   25   TIME STEP 2878

 -------------------------------------------------------------------------------
                             SWR1 OUTPUT PRINT TIMES
                        STRESS PERIOD   25   TIME STEP  2878
 --------------- --------------- --------------- --------------- ---------------
     0.43176E+06                                                                
 -------------------------------------------------------------------------------
 
 SOLVING FOR HEAD 
 INITIAL HNEW IS AN EXACT SOLUTION.

 NO OUTPUT CONTROL FOR STRESS PERIOD   25   TIME STEP 2879

 -------------------------------------------------------------------------------
                             SWR1 OUTPUT PRINT TIMES
                        STRESS PERIOD   25   TIME STEP  2879
 --------------- --------------- --------------- --------------- ---------------
     0.43188E+06                                                                
 -------------------------------------------------------------------------------
 
 SOLVING FOR HEAD 
 INITIAL HNEW IS AN EXACT SOLUTION.

 NO OUTPUT CONTROL FOR STRESS PERIOD   25   TIME STEP 2880

 -------------------------------------------------------------------------------
                             SWR1 OUTPUT PRINT TIMES
                        STRESS PERIOD   25   TIME STEP  2880
 --------------- --------------- --------------- --------------- ---------------
     0.43200E+06                                                                
 -------------------------------------------------------------------------------
 
 SOLVING FOR HEAD 
 INITIAL HNEW IS AN EXACT SOLUTION.

 NO OUTPUT CONTROL FOR STRESS PERIOD   25   TIME STEP 2881

 -------------------------------------------------------------------------------
                             SWR1 OUTPUT PRINT TIMES
                        STRESS PERIOD   25   TIME STEP  2881
 --------------- --------------- --------------- --------------- ---------------
     0.43212E+06                                                                
 -------------------------------------------------------------------------------
 
 SOLVING FOR HEAD 
 INITIAL HNEW IS AN EXACT SOLUTION.

 NO OUTPUT CONTROL FOR STRESS PERIOD   25   TIME STEP 2882

 -------------------------------------------------------------------------------
                             SWR1 OUTPUT PRINT TIMES
                        STRESS PERIOD   25   TIME STEP  2882
 --------------- --------------- --------------- --------------- ---------------
     0.43224E+06                                                                
 -------------------------------------------------------------------------------
 
 SOLVING FOR HEAD 
 INITIAL HNEW IS AN EXACT SOLUTION.

 NO OUTPUT CONTROL FOR STRESS PERIOD   25   TIME STEP 2883

 -------------------------------------------------------------------------------
                             SWR1 OUTPUT PRINT TIMES
                        STRESS PERIOD   25   TIME STEP  2883
 --------------- --------------- --------------- --------------- ---------------
     0.43236E+06                                                                
 -------------------------------------------------------------------------------
 
 SOLVING FOR HEAD 
 INITIAL HNEW IS AN EXACT SOLUTION.

 NO OUTPUT CONTROL FOR STRESS PERIOD   25   TIME STEP 2884

 -------------------------------------------------------------------------------
                             SWR1 OUTPUT PRINT TIMES
                        STRESS PERIOD   25   TIME STEP  2884
 --------------- --------------- --------------- --------------- ---------------
     0.43248E+06                                                                
 -------------------------------------------------------------------------------
 
 SOLVING FOR HEAD 
 INITIAL HNEW IS AN EXACT SOLUTION.

 NO OUTPUT CONTROL FOR STRESS PERIOD   25   TIME STEP 2885

 -------------------------------------------------------------------------------
                             SWR1 OUTPUT PRINT TIMES
                        STRESS PERIOD   25   TIME STEP  2885
 --------------- --------------- --------------- --------------- ---------------
     0.43260E+06                                                                
 -------------------------------------------------------------------------------
 
 SOLVING FOR HEAD 
 INITIAL HNEW IS AN EXACT SOLUTION.

 NO OUTPUT CONTROL FOR STRESS PERIOD   25   TIME STEP 2886

 -------------------------------------------------------------------------------
                             SWR1 OUTPUT PRINT TIMES
                        STRESS PERIOD   25   TIME STEP  2886
 --------------- --------------- --------------- --------------- ---------------
     0.43272E+06                                                                
 -------------------------------------------------------------------------------
 
 SOLVING FOR HEAD 
 INITIAL HNEW IS AN EXACT SOLUTION.

 NO OUTPUT CONTROL FOR STRESS PERIOD   25   TIME STEP 2887

 -------------------------------------------------------------------------------
                             SWR1 OUTPUT PRINT TIMES
                        STRESS PERIOD   25   TIME STEP  2887
 --------------- --------------- --------------- --------------- ---------------
     0.43284E+06                                                                
 -------------------------------------------------------------------------------
 
 SOLVING FOR HEAD 
 INITIAL HNEW IS AN EXACT SOLUTION.

 NO OUTPUT CONTROL FOR STRESS PERIOD   25   TIME STEP 2888

 -------------------------------------------------------------------------------
                             SWR1 OUTPUT PRINT TIMES
                        STRESS PERIOD   25   TIME STEP  2888
 --------------- --------------- --------------- --------------- ---------------
     0.43296E+06                                                                
 -------------------------------------------------------------------------------
 
 SOLVING FOR HEAD 
 INITIAL HNEW IS AN EXACT SOLUTION.

 NO OUTPUT CONTROL FOR STRESS PERIOD   25   TIME STEP 2889

 -------------------------------------------------------------------------------
                             SWR1 OUTPUT PRINT TIMES
                        STRESS PERIOD   25   TIME STEP  2889
 --------------- --------------- --------------- --------------- ---------------
     0.43308E+06                                                                
 -------------------------------------------------------------------------------
 
 SOLVING FOR HEAD 
 INITIAL HNEW IS AN EXACT SOLUTION.

 NO OUTPUT CONTROL FOR STRESS PERIOD   25   TIME STEP 2890

 -------------------------------------------------------------------------------
                             SWR1 OUTPUT PRINT TIMES
                        STRESS PERIOD   25   TIME STEP  2890
 --------------- --------------- --------------- --------------- ---------------
     0.43320E+06                                                                
 -------------------------------------------------------------------------------
 
 SOLVING FOR HEAD 
 INITIAL HNEW IS AN EXACT SOLUTION.

 NO OUTPUT CONTROL FOR STRESS PERIOD   25   TIME STEP 2891

 -------------------------------------------------------------------------------
                             SWR1 OUTPUT PRINT TIMES
                        STRESS PERIOD   25   TIME STEP  2891
 --------------- --------------- --------------- --------------- ---------------
     0.43332E+06                                                                
 -------------------------------------------------------------------------------
 
 SOLVING FOR HEAD 
 INITIAL HNEW IS AN EXACT SOLUTION.

 NO OUTPUT CONTROL FOR STRESS PERIOD   25   TIME STEP 2892

 -------------------------------------------------------------------------------
                             SWR1 OUTPUT PRINT TIMES
                        STRESS PERIOD   25   TIME STEP  2892
 --------------- --------------- --------------- --------------- ---------------
     0.43344E+06                                                                
 -------------------------------------------------------------------------------
 
 SOLVING FOR HEAD 
 INITIAL HNEW IS AN EXACT SOLUTION.

 NO OUTPUT CONTROL FOR STRESS PERIOD   25   TIME STEP 2893

 -------------------------------------------------------------------------------
                             SWR1 OUTPUT PRINT TIMES
                        STRESS PERIOD   25   TIME STEP  2893
 --------------- --------------- --------------- --------------- ---------------
     0.43356E+06                                                                
 -------------------------------------------------------------------------------
 
 SOLVING FOR HEAD 
 INITIAL HNEW IS AN EXACT SOLUTION.

 NO OUTPUT CONTROL FOR STRESS PERIOD   25   TIME STEP 2894

 -------------------------------------------------------------------------------
                             SWR1 OUTPUT PRINT TIMES
                        STRESS PERIOD   25   TIME STEP  2894
 --------------- --------------- --------------- --------------- ---------------
     0.43368E+06                                                                
 -------------------------------------------------------------------------------
 
 SOLVING FOR HEAD 
 INITIAL HNEW IS AN EXACT SOLUTION.

 NO OUTPUT CONTROL FOR STRESS PERIOD   25   TIME STEP 2895

 -------------------------------------------------------------------------------
                             SWR1 OUTPUT PRINT TIMES
                        STRESS PERIOD   25   TIME STEP  2895
 --------------- --------------- --------------- --------------- ---------------
     0.43380E+06                                                                
 -------------------------------------------------------------------------------
 
 SOLVING FOR HEAD 
 INITIAL HNEW IS AN EXACT SOLUTION.

 NO OUTPUT CONTROL FOR STRESS PERIOD   25   TIME STEP 2896

 -------------------------------------------------------------------------------
                             SWR1 OUTPUT PRINT TIMES
                        STRESS PERIOD   25   TIME STEP  2896
 --------------- --------------- --------------- --------------- ---------------
     0.43392E+06                                                                
 -------------------------------------------------------------------------------
 
 SOLVING FOR HEAD 
 INITIAL HNEW IS AN EXACT SOLUTION.

 NO OUTPUT CONTROL FOR STRESS PERIOD   25   TIME STEP 2897

 -------------------------------------------------------------------------------
                             SWR1 OUTPUT PRINT TIMES
                        STRESS PERIOD   25   TIME STEP  2897
 --------------- --------------- --------------- --------------- ---------------
     0.43404E+06                                                                
 -------------------------------------------------------------------------------
 
 SOLVING FOR HEAD 
 INITIAL HNEW IS AN EXACT SOLUTION.

 NO OUTPUT CONTROL FOR STRESS PERIOD   25   TIME STEP 2898

 -------------------------------------------------------------------------------
                             SWR1 OUTPUT PRINT TIMES
                        STRESS PERIOD   25   TIME STEP  2898
 --------------- --------------- --------------- --------------- ---------------
     0.43416E+06                                                                
 -------------------------------------------------------------------------------
 
 SOLVING FOR HEAD 
 INITIAL HNEW IS AN EXACT SOLUTION.

 NO OUTPUT CONTROL FOR STRESS PERIOD   25   TIME STEP 2899

 -------------------------------------------------------------------------------
                             SWR1 OUTPUT PRINT TIMES
                        STRESS PERIOD   25   TIME STEP  2899
 --------------- --------------- --------------- --------------- ---------------
     0.43428E+06                                                                
 -------------------------------------------------------------------------------
 
 SOLVING FOR HEAD 
 INITIAL HNEW IS AN EXACT SOLUTION.

 NO OUTPUT CONTROL FOR STRESS PERIOD   25   TIME STEP 2900

 -------------------------------------------------------------------------------
                             SWR1 OUTPUT PRINT TIMES
                        STRESS PERIOD   25   TIME STEP  2900
 --------------- --------------- --------------- --------------- ---------------
     0.43440E+06                                                                
 -------------------------------------------------------------------------------
 
 SOLVING FOR HEAD 
 INITIAL HNEW IS AN EXACT SOLUTION.

 NO OUTPUT CONTROL FOR STRESS PERIOD   25   TIME STEP 2901

 -------------------------------------------------------------------------------
                             SWR1 OUTPUT PRINT TIMES
                        STRESS PERIOD   25   TIME STEP  2901
 --------------- --------------- --------------- --------------- ---------------
     0.43452E+06                                                                
 -------------------------------------------------------------------------------
 
 SOLVING FOR HEAD 
 INITIAL HNEW IS AN EXACT SOLUTION.

 NO OUTPUT CONTROL FOR STRESS PERIOD   25   TIME STEP 2902

 -------------------------------------------------------------------------------
                             SWR1 OUTPUT PRINT TIMES
                        STRESS PERIOD   25   TIME STEP  2902
 --------------- --------------- --------------- --------------- ---------------
     0.43464E+06                                                                
 -------------------------------------------------------------------------------
 
 SOLVING FOR HEAD 
 INITIAL HNEW IS AN EXACT SOLUTION.

 NO OUTPUT CONTROL FOR STRESS PERIOD   25   TIME STEP 2903

 -------------------------------------------------------------------------------
                             SWR1 OUTPUT PRINT TIMES
                        STRESS PERIOD   25   TIME STEP  2903
 --------------- --------------- --------------- --------------- ---------------
     0.43476E+06                                                                
 -------------------------------------------------------------------------------
 
 SOLVING FOR HEAD 
 INITIAL HNEW IS AN EXACT SOLUTION.

 NO OUTPUT CONTROL FOR STRESS PERIOD   25   TIME STEP 2904

 -------------------------------------------------------------------------------
                             SWR1 OUTPUT PRINT TIMES
                        STRESS PERIOD   25   TIME STEP  2904
 --------------- --------------- --------------- --------------- ---------------
     0.43488E+06                                                                
 -------------------------------------------------------------------------------
 
 SOLVING FOR HEAD 
 INITIAL HNEW IS AN EXACT SOLUTION.

 NO OUTPUT CONTROL FOR STRESS PERIOD   25   TIME STEP 2905

 -------------------------------------------------------------------------------
                             SWR1 OUTPUT PRINT TIMES
                        STRESS PERIOD   25   TIME STEP  2905
 --------------- --------------- --------------- --------------- ---------------
     0.43500E+06                                                                
 -------------------------------------------------------------------------------
 
 SOLVING FOR HEAD 
 INITIAL HNEW IS AN EXACT SOLUTION.

 NO OUTPUT CONTROL FOR STRESS PERIOD   25   TIME STEP 2906

 -------------------------------------------------------------------------------
                             SWR1 OUTPUT PRINT TIMES
                        STRESS PERIOD   25   TIME STEP  2906
 --------------- --------------- --------------- --------------- ---------------
     0.43512E+06                                                                
 -------------------------------------------------------------------------------
 
 SOLVING FOR HEAD 
 INITIAL HNEW IS AN EXACT SOLUTION.

 NO OUTPUT CONTROL FOR STRESS PERIOD   25   TIME STEP 2907

 -------------------------------------------------------------------------------
                             SWR1 OUTPUT PRINT TIMES
                        STRESS PERIOD   25   TIME STEP  2907
 --------------- --------------- --------------- --------------- ---------------
     0.43524E+06                                                                
 -------------------------------------------------------------------------------
 
 SOLVING FOR HEAD 
 INITIAL HNEW IS AN EXACT SOLUTION.

 NO OUTPUT CONTROL FOR STRESS PERIOD   25   TIME STEP 2908

 -------------------------------------------------------------------------------
                             SWR1 OUTPUT PRINT TIMES
                        STRESS PERIOD   25   TIME STEP  2908
 --------------- --------------- --------------- --------------- ---------------
     0.43536E+06                                                                
 -------------------------------------------------------------------------------
 
 SOLVING FOR HEAD 
 INITIAL HNEW IS AN EXACT SOLUTION.

 NO OUTPUT CONTROL FOR STRESS PERIOD   25   TIME STEP 2909

 -------------------------------------------------------------------------------
                             SWR1 OUTPUT PRINT TIMES
                        STRESS PERIOD   25   TIME STEP  2909
 --------------- --------------- --------------- --------------- ---------------
     0.43548E+06                                                                
 -------------------------------------------------------------------------------
 
 SOLVING FOR HEAD 
 INITIAL HNEW IS AN EXACT SOLUTION.

 NO OUTPUT CONTROL FOR STRESS PERIOD   25   TIME STEP 2910

 -------------------------------------------------------------------------------
                             SWR1 OUTPUT PRINT TIMES
                        STRESS PERIOD   25   TIME STEP  2910
 --------------- --------------- --------------- --------------- ---------------
     0.43560E+06                                                                
 -------------------------------------------------------------------------------
 
 SOLVING FOR HEAD 
 INITIAL HNEW IS AN EXACT SOLUTION.

 NO OUTPUT CONTROL FOR STRESS PERIOD   25   TIME STEP 2911

 -------------------------------------------------------------------------------
                             SWR1 OUTPUT PRINT TIMES
                        STRESS PERIOD   25   TIME STEP  2911
 --------------- --------------- --------------- --------------- ---------------
     0.43572E+06                                                                
 -------------------------------------------------------------------------------
 
 SOLVING FOR HEAD 
 INITIAL HNEW IS AN EXACT SOLUTION.

 NO OUTPUT CONTROL FOR STRESS PERIOD   25   TIME STEP 2912

 -------------------------------------------------------------------------------
                             SWR1 OUTPUT PRINT TIMES
                        STRESS PERIOD   25   TIME STEP  2912
 --------------- --------------- --------------- --------------- ---------------
     0.43584E+06                                                                
 -------------------------------------------------------------------------------
 
 SOLVING FOR HEAD 
 INITIAL HNEW IS AN EXACT SOLUTION.

 NO OUTPUT CONTROL FOR STRESS PERIOD   25   TIME STEP 2913

 -------------------------------------------------------------------------------
                             SWR1 OUTPUT PRINT TIMES
                        STRESS PERIOD   25   TIME STEP  2913
 --------------- --------------- --------------- --------------- ---------------
     0.43596E+06                                                                
 -------------------------------------------------------------------------------
 
 SOLVING FOR HEAD 
 INITIAL HNEW IS AN EXACT SOLUTION.

 NO OUTPUT CONTROL FOR STRESS PERIOD   25   TIME STEP 2914

 -------------------------------------------------------------------------------
                             SWR1 OUTPUT PRINT TIMES
                        STRESS PERIOD   25   TIME STEP  2914
 --------------- --------------- --------------- --------------- ---------------
     0.43608E+06                                                                
 -------------------------------------------------------------------------------
 
 SOLVING FOR HEAD 
 INITIAL HNEW IS AN EXACT SOLUTION.

 NO OUTPUT CONTROL FOR STRESS PERIOD   25   TIME STEP 2915

 -------------------------------------------------------------------------------
                             SWR1 OUTPUT PRINT TIMES
                        STRESS PERIOD   25   TIME STEP  2915
 --------------- --------------- --------------- --------------- ---------------
     0.43620E+06                                                                
 -------------------------------------------------------------------------------
 
 SOLVING FOR HEAD 
 INITIAL HNEW IS AN EXACT SOLUTION.

 NO OUTPUT CONTROL FOR STRESS PERIOD   25   TIME STEP 2916

 -------------------------------------------------------------------------------
                             SWR1 OUTPUT PRINT TIMES
                        STRESS PERIOD   25   TIME STEP  2916
 --------------- --------------- --------------- --------------- ---------------
     0.43632E+06                                                                
 -------------------------------------------------------------------------------
 
 SOLVING FOR HEAD 
 INITIAL HNEW IS AN EXACT SOLUTION.

 NO OUTPUT CONTROL FOR STRESS PERIOD   25   TIME STEP 2917

 -------------------------------------------------------------------------------
                             SWR1 OUTPUT PRINT TIMES
                        STRESS PERIOD   25   TIME STEP  2917
 --------------- --------------- --------------- --------------- ---------------
     0.43644E+06                                                                
 -------------------------------------------------------------------------------
 
 SOLVING FOR HEAD 
 INITIAL HNEW IS AN EXACT SOLUTION.

 NO OUTPUT CONTROL FOR STRESS PERIOD   25   TIME STEP 2918

 -------------------------------------------------------------------------------
                             SWR1 OUTPUT PRINT TIMES
                        STRESS PERIOD   25   TIME STEP  2918
 --------------- --------------- --------------- --------------- ---------------
     0.43656E+06                                                                
 -------------------------------------------------------------------------------
 
 SOLVING FOR HEAD 
 INITIAL HNEW IS AN EXACT SOLUTION.

 NO OUTPUT CONTROL FOR STRESS PERIOD   25   TIME STEP 2919

 -------------------------------------------------------------------------------
                             SWR1 OUTPUT PRINT TIMES
                        STRESS PERIOD   25   TIME STEP  2919
 --------------- --------------- --------------- --------------- ---------------
     0.43668E+06                                                                
 -------------------------------------------------------------------------------
 
 SOLVING FOR HEAD 
 INITIAL HNEW IS AN EXACT SOLUTION.

 NO OUTPUT CONTROL FOR STRESS PERIOD   25   TIME STEP 2920

 -------------------------------------------------------------------------------
                             SWR1 OUTPUT PRINT TIMES
                        STRESS PERIOD   25   TIME STEP  2920
 --------------- --------------- --------------- --------------- ---------------
     0.43680E+06                                                                
 -------------------------------------------------------------------------------
 
 SOLVING FOR HEAD 
 INITIAL HNEW IS AN EXACT SOLUTION.

 NO OUTPUT CONTROL FOR STRESS PERIOD   25   TIME STEP 2921

 -------------------------------------------------------------------------------
                             SWR1 OUTPUT PRINT TIMES
                        STRESS PERIOD   25   TIME STEP  2921
 --------------- --------------- --------------- --------------- ---------------
     0.43692E+06                                                                
 -------------------------------------------------------------------------------
 
 SOLVING FOR HEAD 
 INITIAL HNEW IS AN EXACT SOLUTION.

 NO OUTPUT CONTROL FOR STRESS PERIOD   25   TIME STEP 2922

 -------------------------------------------------------------------------------
                             SWR1 OUTPUT PRINT TIMES
                        STRESS PERIOD   25   TIME STEP  2922
 --------------- --------------- --------------- --------------- ---------------
     0.43704E+06                                                                
 -------------------------------------------------------------------------------
 
 SOLVING FOR HEAD 
 INITIAL HNEW IS AN EXACT SOLUTION.

 NO OUTPUT CONTROL FOR STRESS PERIOD   25   TIME STEP 2923

 -------------------------------------------------------------------------------
                             SWR1 OUTPUT PRINT TIMES
                        STRESS PERIOD   25   TIME STEP  2923
 --------------- --------------- --------------- --------------- ---------------
     0.43716E+06                                                                
 -------------------------------------------------------------------------------
 
 SOLVING FOR HEAD 
 INITIAL HNEW IS AN EXACT SOLUTION.

 NO OUTPUT CONTROL FOR STRESS PERIOD   25   TIME STEP 2924

 -------------------------------------------------------------------------------
                             SWR1 OUTPUT PRINT TIMES
                        STRESS PERIOD   25   TIME STEP  2924
 --------------- --------------- --------------- --------------- ---------------
     0.43728E+06                                                                
 -------------------------------------------------------------------------------
 
 SOLVING FOR HEAD 
 INITIAL HNEW IS AN EXACT SOLUTION.

 NO OUTPUT CONTROL FOR STRESS PERIOD   25   TIME STEP 2925

 -------------------------------------------------------------------------------
                             SWR1 OUTPUT PRINT TIMES
                        STRESS PERIOD   25   TIME STEP  2925
 --------------- --------------- --------------- --------------- ---------------
     0.43740E+06                                                                
 -------------------------------------------------------------------------------
 
 SOLVING FOR HEAD 
 INITIAL HNEW IS AN EXACT SOLUTION.

 NO OUTPUT CONTROL FOR STRESS PERIOD   25   TIME STEP 2926

 -------------------------------------------------------------------------------
                             SWR1 OUTPUT PRINT TIMES
                        STRESS PERIOD   25   TIME STEP  2926
 --------------- --------------- --------------- --------------- ---------------
     0.43752E+06                                                                
 -------------------------------------------------------------------------------
 
 SOLVING FOR HEAD 
 INITIAL HNEW IS AN EXACT SOLUTION.

 NO OUTPUT CONTROL FOR STRESS PERIOD   25   TIME STEP 2927

 -------------------------------------------------------------------------------
                             SWR1 OUTPUT PRINT TIMES
                        STRESS PERIOD   25   TIME STEP  2927
 --------------- --------------- --------------- --------------- ---------------
     0.43764E+06                                                                
 -------------------------------------------------------------------------------
 
 SOLVING FOR HEAD 
 INITIAL HNEW IS AN EXACT SOLUTION.

 NO OUTPUT CONTROL FOR STRESS PERIOD   25   TIME STEP 2928

 -------------------------------------------------------------------------------
                             SWR1 OUTPUT PRINT TIMES
                        STRESS PERIOD   25   TIME STEP  2928
 --------------- --------------- --------------- --------------- ---------------
     0.43776E+06                                                                
 -------------------------------------------------------------------------------
 
 SOLVING FOR HEAD 
 INITIAL HNEW IS AN EXACT SOLUTION.

 NO OUTPUT CONTROL FOR STRESS PERIOD   25   TIME STEP 2929

 -------------------------------------------------------------------------------
                             SWR1 OUTPUT PRINT TIMES
                        STRESS PERIOD   25   TIME STEP  2929
 --------------- --------------- --------------- --------------- ---------------
     0.43788E+06                                                                
 -------------------------------------------------------------------------------
 
 SOLVING FOR HEAD 
 INITIAL HNEW IS AN EXACT SOLUTION.

 NO OUTPUT CONTROL FOR STRESS PERIOD   25   TIME STEP 2930

 -------------------------------------------------------------------------------
                             SWR1 OUTPUT PRINT TIMES
                        STRESS PERIOD   25   TIME STEP  2930
 --------------- --------------- --------------- --------------- ---------------
     0.43800E+06                                                                
 -------------------------------------------------------------------------------
 
 SOLVING FOR HEAD 
 INITIAL HNEW IS AN EXACT SOLUTION.

 NO OUTPUT CONTROL FOR STRESS PERIOD   25   TIME STEP 2931

 -------------------------------------------------------------------------------
                             SWR1 OUTPUT PRINT TIMES
                        STRESS PERIOD   25   TIME STEP  2931
 --------------- --------------- --------------- --------------- ---------------
     0.43812E+06                                                                
 -------------------------------------------------------------------------------
 
 SOLVING FOR HEAD 
 INITIAL HNEW IS AN EXACT SOLUTION.

 NO OUTPUT CONTROL FOR STRESS PERIOD   25   TIME STEP 2932

 -------------------------------------------------------------------------------
                             SWR1 OUTPUT PRINT TIMES
                        STRESS PERIOD   25   TIME STEP  2932
 --------------- --------------- --------------- --------------- ---------------
     0.43824E+06                                                                
 -------------------------------------------------------------------------------
 
 SOLVING FOR HEAD 
 INITIAL HNEW IS AN EXACT SOLUTION.

 NO OUTPUT CONTROL FOR STRESS PERIOD   25   TIME STEP 2933

 -------------------------------------------------------------------------------
                             SWR1 OUTPUT PRINT TIMES
                        STRESS PERIOD   25   TIME STEP  2933
 --------------- --------------- --------------- --------------- ---------------
     0.43836E+06                                                                
 -------------------------------------------------------------------------------
 
 SOLVING FOR HEAD 
 INITIAL HNEW IS AN EXACT SOLUTION.

 NO OUTPUT CONTROL FOR STRESS PERIOD   25   TIME STEP 2934

 -------------------------------------------------------------------------------
                             SWR1 OUTPUT PRINT TIMES
                        STRESS PERIOD   25   TIME STEP  2934
 --------------- --------------- --------------- --------------- ---------------
     0.43848E+06                                                                
 -------------------------------------------------------------------------------
 
 SOLVING FOR HEAD 
 INITIAL HNEW IS AN EXACT SOLUTION.

 NO OUTPUT CONTROL FOR STRESS PERIOD   25   TIME STEP 2935

 -------------------------------------------------------------------------------
                             SWR1 OUTPUT PRINT TIMES
                        STRESS PERIOD   25   TIME STEP  2935
 --------------- --------------- --------------- --------------- ---------------
     0.43860E+06                                                                
 -------------------------------------------------------------------------------
 
 SOLVING FOR HEAD 
 INITIAL HNEW IS AN EXACT SOLUTION.

 NO OUTPUT CONTROL FOR STRESS PERIOD   25   TIME STEP 2936

 -------------------------------------------------------------------------------
                             SWR1 OUTPUT PRINT TIMES
                        STRESS PERIOD   25   TIME STEP  2936
 --------------- --------------- --------------- --------------- ---------------
     0.43872E+06                                                                
 -------------------------------------------------------------------------------
 
 SOLVING FOR HEAD 
 INITIAL HNEW IS AN EXACT SOLUTION.

 NO OUTPUT CONTROL FOR STRESS PERIOD   25   TIME STEP 2937

 -------------------------------------------------------------------------------
                             SWR1 OUTPUT PRINT TIMES
                        STRESS PERIOD   25   TIME STEP  2937
 --------------- --------------- --------------- --------------- ---------------
     0.43884E+06                                                                
 -------------------------------------------------------------------------------
 
 SOLVING FOR HEAD 
 INITIAL HNEW IS AN EXACT SOLUTION.

 NO OUTPUT CONTROL FOR STRESS PERIOD   25   TIME STEP 2938

 -------------------------------------------------------------------------------
                             SWR1 OUTPUT PRINT TIMES
                        STRESS PERIOD   25   TIME STEP  2938
 --------------- --------------- --------------- --------------- ---------------
     0.43896E+06                                                                
 -------------------------------------------------------------------------------
 
 SOLVING FOR HEAD 
 INITIAL HNEW IS AN EXACT SOLUTION.

 NO OUTPUT CONTROL FOR STRESS PERIOD   25   TIME STEP 2939

 -------------------------------------------------------------------------------
                             SWR1 OUTPUT PRINT TIMES
                        STRESS PERIOD   25   TIME STEP  2939
 --------------- --------------- --------------- --------------- ---------------
     0.43908E+06                                                                
 -------------------------------------------------------------------------------
 
 SOLVING FOR HEAD 
 INITIAL HNEW IS AN EXACT SOLUTION.

 NO OUTPUT CONTROL FOR STRESS PERIOD   25   TIME STEP 2940

 -------------------------------------------------------------------------------
                             SWR1 OUTPUT PRINT TIMES
                        STRESS PERIOD   25   TIME STEP  2940
 --------------- --------------- --------------- --------------- ---------------
     0.43920E+06                                                                
 -------------------------------------------------------------------------------
 
 SOLVING FOR HEAD 
 INITIAL HNEW IS AN EXACT SOLUTION.

 NO OUTPUT CONTROL FOR STRESS PERIOD   25   TIME STEP 2941

 -------------------------------------------------------------------------------
                             SWR1 OUTPUT PRINT TIMES
                        STRESS PERIOD   25   TIME STEP  2941
 --------------- --------------- --------------- --------------- ---------------
     0.43932E+06                                                                
 -------------------------------------------------------------------------------
 
 SOLVING FOR HEAD 
 INITIAL HNEW IS AN EXACT SOLUTION.

 NO OUTPUT CONTROL FOR STRESS PERIOD   25   TIME STEP 2942

 -------------------------------------------------------------------------------
                             SWR1 OUTPUT PRINT TIMES
                        STRESS PERIOD   25   TIME STEP  2942
 --------------- --------------- --------------- --------------- ---------------
     0.43944E+06                                                                
 -------------------------------------------------------------------------------
 
 SOLVING FOR HEAD 
 INITIAL HNEW IS AN EXACT SOLUTION.

 NO OUTPUT CONTROL FOR STRESS PERIOD   25   TIME STEP 2943

 -------------------------------------------------------------------------------
                             SWR1 OUTPUT PRINT TIMES
                        STRESS PERIOD   25   TIME STEP  2943
 --------------- --------------- --------------- --------------- ---------------
     0.43956E+06                                                                
 -------------------------------------------------------------------------------
 
 SOLVING FOR HEAD 
 INITIAL HNEW IS AN EXACT SOLUTION.

 NO OUTPUT CONTROL FOR STRESS PERIOD   25   TIME STEP 2944

 -------------------------------------------------------------------------------
                             SWR1 OUTPUT PRINT TIMES
                        STRESS PERIOD   25   TIME STEP  2944
 --------------- --------------- --------------- --------------- ---------------
     0.43968E+06                                                                
 -------------------------------------------------------------------------------
 
 SOLVING FOR HEAD 
 INITIAL HNEW IS AN EXACT SOLUTION.

 NO OUTPUT CONTROL FOR STRESS PERIOD   25   TIME STEP 2945

 -------------------------------------------------------------------------------
                             SWR1 OUTPUT PRINT TIMES
                        STRESS PERIOD   25   TIME STEP  2945
 --------------- --------------- --------------- --------------- ---------------
     0.43980E+06                                                                
 -------------------------------------------------------------------------------
 
 SOLVING FOR HEAD 
 INITIAL HNEW IS AN EXACT SOLUTION.

 NO OUTPUT CONTROL FOR STRESS PERIOD   25   TIME STEP 2946

 -------------------------------------------------------------------------------
                             SWR1 OUTPUT PRINT TIMES
                        STRESS PERIOD   25   TIME STEP  2946
 --------------- --------------- --------------- --------------- ---------------
     0.43992E+06                                                                
 -------------------------------------------------------------------------------
 
 SOLVING FOR HEAD 
 INITIAL HNEW IS AN EXACT SOLUTION.

 NO OUTPUT CONTROL FOR STRESS PERIOD   25   TIME STEP 2947

 -------------------------------------------------------------------------------
                             SWR1 OUTPUT PRINT TIMES
                        STRESS PERIOD   25   TIME STEP  2947
 --------------- --------------- --------------- --------------- ---------------
     0.44004E+06                                                                
 -------------------------------------------------------------------------------
 
 SOLVING FOR HEAD 
 INITIAL HNEW IS AN EXACT SOLUTION.

 NO OUTPUT CONTROL FOR STRESS PERIOD   25   TIME STEP 2948

 -------------------------------------------------------------------------------
                             SWR1 OUTPUT PRINT TIMES
                        STRESS PERIOD   25   TIME STEP  2948
 --------------- --------------- --------------- --------------- ---------------
     0.44016E+06                                                                
 -------------------------------------------------------------------------------
 
 SOLVING FOR HEAD 
 INITIAL HNEW IS AN EXACT SOLUTION.

 NO OUTPUT CONTROL FOR STRESS PERIOD   25   TIME STEP 2949

 -------------------------------------------------------------------------------
                             SWR1 OUTPUT PRINT TIMES
                        STRESS PERIOD   25   TIME STEP  2949
 --------------- --------------- --------------- --------------- ---------------
     0.44028E+06                                                                
 -------------------------------------------------------------------------------
 
 SOLVING FOR HEAD 
 INITIAL HNEW IS AN EXACT SOLUTION.

 NO OUTPUT CONTROL FOR STRESS PERIOD   25   TIME STEP 2950

 -------------------------------------------------------------------------------
                             SWR1 OUTPUT PRINT TIMES
                        STRESS PERIOD   25   TIME STEP  2950
 --------------- --------------- --------------- --------------- ---------------
     0.44040E+06                                                                
 -------------------------------------------------------------------------------
 
 SOLVING FOR HEAD 
 INITIAL HNEW IS AN EXACT SOLUTION.

 NO OUTPUT CONTROL FOR STRESS PERIOD   25   TIME STEP 2951

 -------------------------------------------------------------------------------
                             SWR1 OUTPUT PRINT TIMES
                        STRESS PERIOD   25   TIME STEP  2951
 --------------- --------------- --------------- --------------- ---------------
     0.44052E+06                                                                
 -------------------------------------------------------------------------------
 
 SOLVING FOR HEAD 
 INITIAL HNEW IS AN EXACT SOLUTION.

 NO OUTPUT CONTROL FOR STRESS PERIOD   25   TIME STEP 2952

 -------------------------------------------------------------------------------
                             SWR1 OUTPUT PRINT TIMES
                        STRESS PERIOD   25   TIME STEP  2952
 --------------- --------------- --------------- --------------- ---------------
     0.44064E+06                                                                
 -------------------------------------------------------------------------------
 
 SOLVING FOR HEAD 
 INITIAL HNEW IS AN EXACT SOLUTION.

 NO OUTPUT CONTROL FOR STRESS PERIOD   25   TIME STEP 2953

 -------------------------------------------------------------------------------
                             SWR1 OUTPUT PRINT TIMES
                        STRESS PERIOD   25   TIME STEP  2953
 --------------- --------------- --------------- --------------- ---------------
     0.44076E+06                                                                
 -------------------------------------------------------------------------------
 
 SOLVING FOR HEAD 
 INITIAL HNEW IS AN EXACT SOLUTION.

 NO OUTPUT CONTROL FOR STRESS PERIOD   25   TIME STEP 2954

 -------------------------------------------------------------------------------
                             SWR1 OUTPUT PRINT TIMES
                        STRESS PERIOD   25   TIME STEP  2954
 --------------- --------------- --------------- --------------- ---------------
     0.44088E+06                                                                
 -------------------------------------------------------------------------------
 
 SOLVING FOR HEAD 
 INITIAL HNEW IS AN EXACT SOLUTION.

 NO OUTPUT CONTROL FOR STRESS PERIOD   25   TIME STEP 2955

 -------------------------------------------------------------------------------
                             SWR1 OUTPUT PRINT TIMES
                        STRESS PERIOD   25   TIME STEP  2955
 --------------- --------------- --------------- --------------- ---------------
     0.44100E+06                                                                
 -------------------------------------------------------------------------------
 
 SOLVING FOR HEAD 
 INITIAL HNEW IS AN EXACT SOLUTION.

 NO OUTPUT CONTROL FOR STRESS PERIOD   25   TIME STEP 2956

 -------------------------------------------------------------------------------
                             SWR1 OUTPUT PRINT TIMES
                        STRESS PERIOD   25   TIME STEP  2956
 --------------- --------------- --------------- --------------- ---------------
     0.44112E+06                                                                
 -------------------------------------------------------------------------------
 
 SOLVING FOR HEAD 
 INITIAL HNEW IS AN EXACT SOLUTION.

 NO OUTPUT CONTROL FOR STRESS PERIOD   25   TIME STEP 2957

 -------------------------------------------------------------------------------
                             SWR1 OUTPUT PRINT TIMES
                        STRESS PERIOD   25   TIME STEP  2957
 --------------- --------------- --------------- --------------- ---------------
     0.44124E+06                                                                
 -------------------------------------------------------------------------------
 
 SOLVING FOR HEAD 
 INITIAL HNEW IS AN EXACT SOLUTION.

 NO OUTPUT CONTROL FOR STRESS PERIOD   25   TIME STEP 2958

 -------------------------------------------------------------------------------
                             SWR1 OUTPUT PRINT TIMES
                        STRESS PERIOD   25   TIME STEP  2958
 --------------- --------------- --------------- --------------- ---------------
     0.44136E+06                                                                
 -------------------------------------------------------------------------------
 
 SOLVING FOR HEAD 
 INITIAL HNEW IS AN EXACT SOLUTION.

 NO OUTPUT CONTROL FOR STRESS PERIOD   25   TIME STEP 2959

 -------------------------------------------------------------------------------
                             SWR1 OUTPUT PRINT TIMES
                        STRESS PERIOD   25   TIME STEP  2959
 --------------- --------------- --------------- --------------- ---------------
     0.44148E+06                                                                
 -------------------------------------------------------------------------------
 
 SOLVING FOR HEAD 
 INITIAL HNEW IS AN EXACT SOLUTION.

 NO OUTPUT CONTROL FOR STRESS PERIOD   25   TIME STEP 2960

 -------------------------------------------------------------------------------
                             SWR1 OUTPUT PRINT TIMES
                        STRESS PERIOD   25   TIME STEP  2960
 --------------- --------------- --------------- --------------- ---------------
     0.44160E+06                                                                
 -------------------------------------------------------------------------------
 
 SOLVING FOR HEAD 
 INITIAL HNEW IS AN EXACT SOLUTION.

 NO OUTPUT CONTROL FOR STRESS PERIOD   25   TIME STEP 2961

 -------------------------------------------------------------------------------
                             SWR1 OUTPUT PRINT TIMES
                        STRESS PERIOD   25   TIME STEP  2961
 --------------- --------------- --------------- --------------- ---------------
     0.44172E+06                                                                
 -------------------------------------------------------------------------------
 
 SOLVING FOR HEAD 
 INITIAL HNEW IS AN EXACT SOLUTION.

 NO OUTPUT CONTROL FOR STRESS PERIOD   25   TIME STEP 2962

 -------------------------------------------------------------------------------
                             SWR1 OUTPUT PRINT TIMES
                        STRESS PERIOD   25   TIME STEP  2962
 --------------- --------------- --------------- --------------- ---------------
     0.44184E+06                                                                
 -------------------------------------------------------------------------------
 
 SOLVING FOR HEAD 
 INITIAL HNEW IS AN EXACT SOLUTION.

 NO OUTPUT CONTROL FOR STRESS PERIOD   25   TIME STEP 2963

 -------------------------------------------------------------------------------
                             SWR1 OUTPUT PRINT TIMES
                        STRESS PERIOD   25   TIME STEP  2963
 --------------- --------------- --------------- --------------- ---------------
     0.44196E+06                                                                
 -------------------------------------------------------------------------------
 
 SOLVING FOR HEAD 
 INITIAL HNEW IS AN EXACT SOLUTION.

 NO OUTPUT CONTROL FOR STRESS PERIOD   25   TIME STEP 2964

 -------------------------------------------------------------------------------
                             SWR1 OUTPUT PRINT TIMES
                        STRESS PERIOD   25   TIME STEP  2964
 --------------- --------------- --------------- --------------- ---------------
     0.44208E+06                                                                
 -------------------------------------------------------------------------------
 
 SOLVING FOR HEAD 
 INITIAL HNEW IS AN EXACT SOLUTION.

 NO OUTPUT CONTROL FOR STRESS PERIOD   25   TIME STEP 2965

 -------------------------------------------------------------------------------
                             SWR1 OUTPUT PRINT TIMES
                        STRESS PERIOD   25   TIME STEP  2965
 --------------- --------------- --------------- --------------- ---------------
     0.44220E+06                                                                
 -------------------------------------------------------------------------------
 
 SOLVING FOR HEAD 
 INITIAL HNEW IS AN EXACT SOLUTION.

 NO OUTPUT CONTROL FOR STRESS PERIOD   25   TIME STEP 2966

 -------------------------------------------------------------------------------
                             SWR1 OUTPUT PRINT TIMES
                        STRESS PERIOD   25   TIME STEP  2966
 --------------- --------------- --------------- --------------- ---------------
     0.44232E+06                                                                
 -------------------------------------------------------------------------------
 
 SOLVING FOR HEAD 
 INITIAL HNEW IS AN EXACT SOLUTION.

 NO OUTPUT CONTROL FOR STRESS PERIOD   25   TIME STEP 2967

 -------------------------------------------------------------------------------
                             SWR1 OUTPUT PRINT TIMES
                        STRESS PERIOD   25   TIME STEP  2967
 --------------- --------------- --------------- --------------- ---------------
     0.44244E+06                                                                
 -------------------------------------------------------------------------------
 
 SOLVING FOR HEAD 
 INITIAL HNEW IS AN EXACT SOLUTION.

 NO OUTPUT CONTROL FOR STRESS PERIOD   25   TIME STEP 2968

 -------------------------------------------------------------------------------
                             SWR1 OUTPUT PRINT TIMES
                        STRESS PERIOD   25   TIME STEP  2968
 --------------- --------------- --------------- --------------- ---------------
     0.44256E+06                                                                
 -------------------------------------------------------------------------------
 
 SOLVING FOR HEAD 
 INITIAL HNEW IS AN EXACT SOLUTION.

 NO OUTPUT CONTROL FOR STRESS PERIOD   25   TIME STEP 2969

 -------------------------------------------------------------------------------
                             SWR1 OUTPUT PRINT TIMES
                        STRESS PERIOD   25   TIME STEP  2969
 --------------- --------------- --------------- --------------- ---------------
     0.44268E+06                                                                
 -------------------------------------------------------------------------------
 
 SOLVING FOR HEAD 
 INITIAL HNEW IS AN EXACT SOLUTION.

 NO OUTPUT CONTROL FOR STRESS PERIOD   25   TIME STEP 2970

 -------------------------------------------------------------------------------
                             SWR1 OUTPUT PRINT TIMES
                        STRESS PERIOD   25   TIME STEP  2970
 --------------- --------------- --------------- --------------- ---------------
     0.44280E+06                                                                
 -------------------------------------------------------------------------------
 
 SOLVING FOR HEAD 
 INITIAL HNEW IS AN EXACT SOLUTION.

 NO OUTPUT CONTROL FOR STRESS PERIOD   25   TIME STEP 2971

 -------------------------------------------------------------------------------
                             SWR1 OUTPUT PRINT TIMES
                        STRESS PERIOD   25   TIME STEP  2971
 --------------- --------------- --------------- --------------- ---------------
     0.44292E+06                                                                
 -------------------------------------------------------------------------------
 
 SOLVING FOR HEAD 
 INITIAL HNEW IS AN EXACT SOLUTION.

 NO OUTPUT CONTROL FOR STRESS PERIOD   25   TIME STEP 2972

 -------------------------------------------------------------------------------
                             SWR1 OUTPUT PRINT TIMES
                        STRESS PERIOD   25   TIME STEP  2972
 --------------- --------------- --------------- --------------- ---------------
     0.44304E+06                                                                
 -------------------------------------------------------------------------------
 
 SOLVING FOR HEAD 
 INITIAL HNEW IS AN EXACT SOLUTION.

 NO OUTPUT CONTROL FOR STRESS PERIOD   25   TIME STEP 2973

 -------------------------------------------------------------------------------
                             SWR1 OUTPUT PRINT TIMES
                        STRESS PERIOD   25   TIME STEP  2973
 --------------- --------------- --------------- --------------- ---------------
     0.44316E+06                                                                
 -------------------------------------------------------------------------------
 
 SOLVING FOR HEAD 
 INITIAL HNEW IS AN EXACT SOLUTION.

 NO OUTPUT CONTROL FOR STRESS PERIOD   25   TIME STEP 2974

 -------------------------------------------------------------------------------
                             SWR1 OUTPUT PRINT TIMES
                        STRESS PERIOD   25   TIME STEP  2974
 --------------- --------------- --------------- --------------- ---------------
     0.44328E+06                                                                
 -------------------------------------------------------------------------------
 
 SOLVING FOR HEAD 
 INITIAL HNEW IS AN EXACT SOLUTION.

 NO OUTPUT CONTROL FOR STRESS PERIOD   25   TIME STEP 2975

 -------------------------------------------------------------------------------
                             SWR1 OUTPUT PRINT TIMES
                        STRESS PERIOD   25   TIME STEP  2975
 --------------- --------------- --------------- --------------- ---------------
     0.44340E+06                                                                
 -------------------------------------------------------------------------------
 
 SOLVING FOR HEAD 
 INITIAL HNEW IS AN EXACT SOLUTION.

 NO OUTPUT CONTROL FOR STRESS PERIOD   25   TIME STEP 2976

 -------------------------------------------------------------------------------
                             SWR1 OUTPUT PRINT TIMES
                        STRESS PERIOD   25   TIME STEP  2976
 --------------- --------------- --------------- --------------- ---------------
     0.44352E+06                                                                
 -------------------------------------------------------------------------------
 
 SOLVING FOR HEAD 
 INITIAL HNEW IS AN EXACT SOLUTION.

 NO OUTPUT CONTROL FOR STRESS PERIOD   25   TIME STEP 2977

 -------------------------------------------------------------------------------
                             SWR1 OUTPUT PRINT TIMES
                        STRESS PERIOD   25   TIME STEP  2977
 --------------- --------------- --------------- --------------- ---------------
     0.44364E+06                                                                
 -------------------------------------------------------------------------------
 
 SOLVING FOR HEAD 
 INITIAL HNEW IS AN EXACT SOLUTION.

 NO OUTPUT CONTROL FOR STRESS PERIOD   25   TIME STEP 2978

 -------------------------------------------------------------------------------
                             SWR1 OUTPUT PRINT TIMES
                        STRESS PERIOD   25   TIME STEP  2978
 --------------- --------------- --------------- --------------- ---------------
     0.44376E+06                                                                
 -------------------------------------------------------------------------------
 
 SOLVING FOR HEAD 
 INITIAL HNEW IS AN EXACT SOLUTION.

 NO OUTPUT CONTROL FOR STRESS PERIOD   25   TIME STEP 2979

 -------------------------------------------------------------------------------
                             SWR1 OUTPUT PRINT TIMES
                        STRESS PERIOD   25   TIME STEP  2979
 --------------- --------------- --------------- --------------- ---------------
     0.44388E+06                                                                
 -------------------------------------------------------------------------------
 
 SOLVING FOR HEAD 
 INITIAL HNEW IS AN EXACT SOLUTION.

 NO OUTPUT CONTROL FOR STRESS PERIOD   25   TIME STEP 2980

 -------------------------------------------------------------------------------
                             SWR1 OUTPUT PRINT TIMES
                        STRESS PERIOD   25   TIME STEP  2980
 --------------- --------------- --------------- --------------- ---------------
     0.44400E+06                                                                
 -------------------------------------------------------------------------------
 
 SOLVING FOR HEAD 
 INITIAL HNEW IS AN EXACT SOLUTION.

 NO OUTPUT CONTROL FOR STRESS PERIOD   25   TIME STEP 2981

 -------------------------------------------------------------------------------
                             SWR1 OUTPUT PRINT TIMES
                        STRESS PERIOD   25   TIME STEP  2981
 --------------- --------------- --------------- --------------- ---------------
     0.44412E+06                                                                
 -------------------------------------------------------------------------------
 
 SOLVING FOR HEAD 
 INITIAL HNEW IS AN EXACT SOLUTION.

 NO OUTPUT CONTROL FOR STRESS PERIOD   25   TIME STEP 2982

 -------------------------------------------------------------------------------
                             SWR1 OUTPUT PRINT TIMES
                        STRESS PERIOD   25   TIME STEP  2982
 --------------- --------------- --------------- --------------- ---------------
     0.44424E+06                                                                
 -------------------------------------------------------------------------------
 
 SOLVING FOR HEAD 
 INITIAL HNEW IS AN EXACT SOLUTION.

 NO OUTPUT CONTROL FOR STRESS PERIOD   25   TIME STEP 2983

 -------------------------------------------------------------------------------
                             SWR1 OUTPUT PRINT TIMES
                        STRESS PERIOD   25   TIME STEP  2983
 --------------- --------------- --------------- --------------- ---------------
     0.44436E+06                                                                
 -------------------------------------------------------------------------------
 
 SOLVING FOR HEAD 
 INITIAL HNEW IS AN EXACT SOLUTION.

 NO OUTPUT CONTROL FOR STRESS PERIOD   25   TIME STEP 2984

 -------------------------------------------------------------------------------
                             SWR1 OUTPUT PRINT TIMES
                        STRESS PERIOD   25   TIME STEP  2984
 --------------- --------------- --------------- --------------- ---------------
     0.44448E+06                                                                
 -------------------------------------------------------------------------------
 
 SOLVING FOR HEAD 
 INITIAL HNEW IS AN EXACT SOLUTION.

 NO OUTPUT CONTROL FOR STRESS PERIOD   25   TIME STEP 2985

 -------------------------------------------------------------------------------
                             SWR1 OUTPUT PRINT TIMES
                        STRESS PERIOD   25   TIME STEP  2985
 --------------- --------------- --------------- --------------- ---------------
     0.44460E+06                                                                
 -------------------------------------------------------------------------------
 
 SOLVING FOR HEAD 
 INITIAL HNEW IS AN EXACT SOLUTION.

 NO OUTPUT CONTROL FOR STRESS PERIOD   25   TIME STEP 2986

 -------------------------------------------------------------------------------
                             SWR1 OUTPUT PRINT TIMES
                        STRESS PERIOD   25   TIME STEP  2986
 --------------- --------------- --------------- --------------- ---------------
     0.44472E+06                                                                
 -------------------------------------------------------------------------------
 
 SOLVING FOR HEAD 
 INITIAL HNEW IS AN EXACT SOLUTION.

 NO OUTPUT CONTROL FOR STRESS PERIOD   25   TIME STEP 2987

 -------------------------------------------------------------------------------
                             SWR1 OUTPUT PRINT TIMES
                        STRESS PERIOD   25   TIME STEP  2987
 --------------- --------------- --------------- --------------- ---------------
     0.44484E+06                                                                
 -------------------------------------------------------------------------------
 
 SOLVING FOR HEAD 
 INITIAL HNEW IS AN EXACT SOLUTION.

 NO OUTPUT CONTROL FOR STRESS PERIOD   25   TIME STEP 2988

 -------------------------------------------------------------------------------
                             SWR1 OUTPUT PRINT TIMES
                        STRESS PERIOD   25   TIME STEP  2988
 --------------- --------------- --------------- --------------- ---------------
     0.44496E+06                                                                
 -------------------------------------------------------------------------------
 
 SOLVING FOR HEAD 
 INITIAL HNEW IS AN EXACT SOLUTION.

 NO OUTPUT CONTROL FOR STRESS PERIOD   25   TIME STEP 2989

 -------------------------------------------------------------------------------
                             SWR1 OUTPUT PRINT TIMES
                        STRESS PERIOD   25   TIME STEP  2989
 --------------- --------------- --------------- --------------- ---------------
     0.44508E+06                                                                
 -------------------------------------------------------------------------------
 
 SOLVING FOR HEAD 
 INITIAL HNEW IS AN EXACT SOLUTION.

 NO OUTPUT CONTROL FOR STRESS PERIOD   25   TIME STEP 2990

 -------------------------------------------------------------------------------
                             SWR1 OUTPUT PRINT TIMES
                        STRESS PERIOD   25   TIME STEP  2990
 --------------- --------------- --------------- --------------- ---------------
     0.44520E+06                                                                
 -------------------------------------------------------------------------------
 
 SOLVING FOR HEAD 
 INITIAL HNEW IS AN EXACT SOLUTION.

 NO OUTPUT CONTROL FOR STRESS PERIOD   25   TIME STEP 2991

 -------------------------------------------------------------------------------
                             SWR1 OUTPUT PRINT TIMES
                        STRESS PERIOD   25   TIME STEP  2991
 --------------- --------------- --------------- --------------- ---------------
     0.44532E+06                                                                
 -------------------------------------------------------------------------------
 
 SOLVING FOR HEAD 
 INITIAL HNEW IS AN EXACT SOLUTION.

 NO OUTPUT CONTROL FOR STRESS PERIOD   25   TIME STEP 2992

 -------------------------------------------------------------------------------
                             SWR1 OUTPUT PRINT TIMES
                        STRESS PERIOD   25   TIME STEP  2992
 --------------- --------------- --------------- --------------- ---------------
     0.44544E+06                                                                
 -------------------------------------------------------------------------------
 
 SOLVING FOR HEAD 
 INITIAL HNEW IS AN EXACT SOLUTION.

 NO OUTPUT CONTROL FOR STRESS PERIOD   25   TIME STEP 2993

 -------------------------------------------------------------------------------
                             SWR1 OUTPUT PRINT TIMES
                        STRESS PERIOD   25   TIME STEP  2993
 --------------- --------------- --------------- --------------- ---------------
     0.44556E+06                                                                
 -------------------------------------------------------------------------------
 
 SOLVING FOR HEAD 
 INITIAL HNEW IS AN EXACT SOLUTION.

 NO OUTPUT CONTROL FOR STRESS PERIOD   25   TIME STEP 2994

 -------------------------------------------------------------------------------
                             SWR1 OUTPUT PRINT TIMES
                        STRESS PERIOD   25   TIME STEP  2994
 --------------- --------------- --------------- --------------- ---------------
     0.44568E+06                                                                
 -------------------------------------------------------------------------------
 
 SOLVING FOR HEAD 
 INITIAL HNEW IS AN EXACT SOLUTION.

 NO OUTPUT CONTROL FOR STRESS PERIOD   25   TIME STEP 2995

 -------------------------------------------------------------------------------
                             SWR1 OUTPUT PRINT TIMES
                        STRESS PERIOD   25   TIME STEP  2995
 --------------- --------------- --------------- --------------- ---------------
     0.44580E+06                                                                
 -------------------------------------------------------------------------------
 
 SOLVING FOR HEAD 
 INITIAL HNEW IS AN EXACT SOLUTION.

 NO OUTPUT CONTROL FOR STRESS PERIOD   25   TIME STEP 2996

 -------------------------------------------------------------------------------
                             SWR1 OUTPUT PRINT TIMES
                        STRESS PERIOD   25   TIME STEP  2996
 --------------- --------------- --------------- --------------- ---------------
     0.44592E+06                                                                
 -------------------------------------------------------------------------------
 
 SOLVING FOR HEAD 
 INITIAL HNEW IS AN EXACT SOLUTION.

 NO OUTPUT CONTROL FOR STRESS PERIOD   25   TIME STEP 2997

 -------------------------------------------------------------------------------
                             SWR1 OUTPUT PRINT TIMES
                        STRESS PERIOD   25   TIME STEP  2997
 --------------- --------------- --------------- --------------- ---------------
     0.44604E+06                                                                
 -------------------------------------------------------------------------------
 
 SOLVING FOR HEAD 
 INITIAL HNEW IS AN EXACT SOLUTION.

 NO OUTPUT CONTROL FOR STRESS PERIOD   25   TIME STEP 2998

 -------------------------------------------------------------------------------
                             SWR1 OUTPUT PRINT TIMES
                        STRESS PERIOD   25   TIME STEP  2998
 --------------- --------------- --------------- --------------- ---------------
     0.44616E+06                                                                
 -------------------------------------------------------------------------------
 
 SOLVING FOR HEAD 
 INITIAL HNEW IS AN EXACT SOLUTION.

 NO OUTPUT CONTROL FOR STRESS PERIOD   25   TIME STEP 2999

 -------------------------------------------------------------------------------
                             SWR1 OUTPUT PRINT TIMES
                        STRESS PERIOD   25   TIME STEP  2999
 --------------- --------------- --------------- --------------- ---------------
     0.44628E+06                                                                
 -------------------------------------------------------------------------------
 
 SOLVING FOR HEAD 
 INITIAL HNEW IS AN EXACT SOLUTION.

 NO OUTPUT CONTROL FOR STRESS PERIOD   25   TIME STEP 3000

 -------------------------------------------------------------------------------
                             SWR1 OUTPUT PRINT TIMES
                        STRESS PERIOD   25   TIME STEP  3000
 --------------- --------------- --------------- --------------- ---------------
     0.44640E+06                                                                
 -------------------------------------------------------------------------------
 
 SOLVING FOR HEAD 
 INITIAL HNEW IS AN EXACT SOLUTION.

 NO OUTPUT CONTROL FOR STRESS PERIOD   25   TIME STEP 3001

 -------------------------------------------------------------------------------
                             SWR1 OUTPUT PRINT TIMES
                        STRESS PERIOD   25   TIME STEP  3001
 --------------- --------------- --------------- --------------- ---------------
     0.44652E+06                                                                
 -------------------------------------------------------------------------------
 
 SOLVING FOR HEAD 
 INITIAL HNEW IS AN EXACT SOLUTION.

 NO OUTPUT CONTROL FOR STRESS PERIOD   25   TIME STEP 3002

 -------------------------------------------------------------------------------
                             SWR1 OUTPUT PRINT TIMES
                        STRESS PERIOD   25   TIME STEP  3002
 --------------- --------------- --------------- --------------- ---------------
     0.44664E+06                                                                
 -------------------------------------------------------------------------------
 
 SOLVING FOR HEAD 
 INITIAL HNEW IS AN EXACT SOLUTION.

 NO OUTPUT CONTROL FOR STRESS PERIOD   25   TIME STEP 3003

 -------------------------------------------------------------------------------
                             SWR1 OUTPUT PRINT TIMES
                        STRESS PERIOD   25   TIME STEP  3003
 --------------- --------------- --------------- --------------- ---------------
     0.44676E+06                                                                
 -------------------------------------------------------------------------------
 
 SOLVING FOR HEAD 
 INITIAL HNEW IS AN EXACT SOLUTION.

 NO OUTPUT CONTROL FOR STRESS PERIOD   25   TIME STEP 3004

 -------------------------------------------------------------------------------
                             SWR1 OUTPUT PRINT TIMES
                        STRESS PERIOD   25   TIME STEP  3004
 --------------- --------------- --------------- --------------- ---------------
     0.44688E+06                                                                
 -------------------------------------------------------------------------------
 
 SOLVING FOR HEAD 
 INITIAL HNEW IS AN EXACT SOLUTION.

 NO OUTPUT CONTROL FOR STRESS PERIOD   25   TIME STEP 3005

 -------------------------------------------------------------------------------
                             SWR1 OUTPUT PRINT TIMES
                        STRESS PERIOD   25   TIME STEP  3005
 --------------- --------------- --------------- --------------- ---------------
     0.44700E+06                                                                
 -------------------------------------------------------------------------------
 
 SOLVING FOR HEAD 
 INITIAL HNEW IS AN EXACT SOLUTION.

 NO OUTPUT CONTROL FOR STRESS PERIOD   25   TIME STEP 3006

 -------------------------------------------------------------------------------
                             SWR1 OUTPUT PRINT TIMES
                        STRESS PERIOD   25   TIME STEP  3006
 --------------- --------------- --------------- --------------- ---------------
     0.44712E+06                                                                
 -------------------------------------------------------------------------------
 
 SOLVING FOR HEAD 
 INITIAL HNEW IS AN EXACT SOLUTION.

 NO OUTPUT CONTROL FOR STRESS PERIOD   25   TIME STEP 3007

 -------------------------------------------------------------------------------
                             SWR1 OUTPUT PRINT TIMES
                        STRESS PERIOD   25   TIME STEP  3007
 --------------- --------------- --------------- --------------- ---------------
     0.44724E+06                                                                
 -------------------------------------------------------------------------------
 
 SOLVING FOR HEAD 
 INITIAL HNEW IS AN EXACT SOLUTION.

 NO OUTPUT CONTROL FOR STRESS PERIOD   25   TIME STEP 3008

 -------------------------------------------------------------------------------
                             SWR1 OUTPUT PRINT TIMES
                        STRESS PERIOD   25   TIME STEP  3008
 --------------- --------------- --------------- --------------- ---------------
     0.44736E+06                                                                
 -------------------------------------------------------------------------------
 
 SOLVING FOR HEAD 
 INITIAL HNEW IS AN EXACT SOLUTION.

 NO OUTPUT CONTROL FOR STRESS PERIOD   25   TIME STEP 3009

 -------------------------------------------------------------------------------
                             SWR1 OUTPUT PRINT TIMES
                        STRESS PERIOD   25   TIME STEP  3009
 --------------- --------------- --------------- --------------- ---------------
     0.44748E+06                                                                
 -------------------------------------------------------------------------------
 
 SOLVING FOR HEAD 
 INITIAL HNEW IS AN EXACT SOLUTION.

 NO OUTPUT CONTROL FOR STRESS PERIOD   25   TIME STEP 3010

 -------------------------------------------------------------------------------
                             SWR1 OUTPUT PRINT TIMES
                        STRESS PERIOD   25   TIME STEP  3010
 --------------- --------------- --------------- --------------- ---------------
     0.44760E+06                                                                
 -------------------------------------------------------------------------------
 
 SOLVING FOR HEAD 
 INITIAL HNEW IS AN EXACT SOLUTION.

 NO OUTPUT CONTROL FOR STRESS PERIOD   25   TIME STEP 3011

 -------------------------------------------------------------------------------
                             SWR1 OUTPUT PRINT TIMES
                        STRESS PERIOD   25   TIME STEP  3011
 --------------- --------------- --------------- --------------- ---------------
     0.44772E+06                                                                
 -------------------------------------------------------------------------------
 
 SOLVING FOR HEAD 
 INITIAL HNEW IS AN EXACT SOLUTION.

 NO OUTPUT CONTROL FOR STRESS PERIOD   25   TIME STEP 3012

 -------------------------------------------------------------------------------
                             SWR1 OUTPUT PRINT TIMES
                        STRESS PERIOD   25   TIME STEP  3012
 --------------- --------------- --------------- --------------- ---------------
     0.44784E+06                                                                
 -------------------------------------------------------------------------------
 
 SOLVING FOR HEAD 
 INITIAL HNEW IS AN EXACT SOLUTION.

 NO OUTPUT CONTROL FOR STRESS PERIOD   25   TIME STEP 3013

 -------------------------------------------------------------------------------
                             SWR1 OUTPUT PRINT TIMES
                        STRESS PERIOD   25   TIME STEP  3013
 --------------- --------------- --------------- --------------- ---------------
     0.44796E+06                                                                
 -------------------------------------------------------------------------------
 
 SOLVING FOR HEAD 
 INITIAL HNEW IS AN EXACT SOLUTION.

 NO OUTPUT CONTROL FOR STRESS PERIOD   25   TIME STEP 3014

 -------------------------------------------------------------------------------
                             SWR1 OUTPUT PRINT TIMES
                        STRESS PERIOD   25   TIME STEP  3014
 --------------- --------------- --------------- --------------- ---------------
     0.44808E+06                                                                
 -------------------------------------------------------------------------------
 
 SOLVING FOR HEAD 
 INITIAL HNEW IS AN EXACT SOLUTION.

 NO OUTPUT CONTROL FOR STRESS PERIOD   25   TIME STEP 3015

 -------------------------------------------------------------------------------
                             SWR1 OUTPUT PRINT TIMES
                        STRESS PERIOD   25   TIME STEP  3015
 --------------- --------------- --------------- --------------- ---------------
     0.44820E+06                                                                
 -------------------------------------------------------------------------------
 
 SOLVING FOR HEAD 
 INITIAL HNEW IS AN EXACT SOLUTION.

 NO OUTPUT CONTROL FOR STRESS PERIOD   25   TIME STEP 3016

 -------------------------------------------------------------------------------
                             SWR1 OUTPUT PRINT TIMES
                        STRESS PERIOD   25   TIME STEP  3016
 --------------- --------------- --------------- --------------- ---------------
     0.44832E+06                                                                
 -------------------------------------------------------------------------------
 
 SOLVING FOR HEAD 
 INITIAL HNEW IS AN EXACT SOLUTION.

 NO OUTPUT CONTROL FOR STRESS PERIOD   25   TIME STEP 3017

 -------------------------------------------------------------------------------
                             SWR1 OUTPUT PRINT TIMES
                        STRESS PERIOD   25   TIME STEP  3017
 --------------- --------------- --------------- --------------- ---------------
     0.44844E+06                                                                
 -------------------------------------------------------------------------------
 
 SOLVING FOR HEAD 
 INITIAL HNEW IS AN EXACT SOLUTION.

 NO OUTPUT CONTROL FOR STRESS PERIOD   25   TIME STEP 3018

 -------------------------------------------------------------------------------
                             SWR1 OUTPUT PRINT TIMES
                        STRESS PERIOD   25   TIME STEP  3018
 --------------- --------------- --------------- --------------- ---------------
     0.44856E+06                                                                
 -------------------------------------------------------------------------------
 
 SOLVING FOR HEAD 
 INITIAL HNEW IS AN EXACT SOLUTION.

 NO OUTPUT CONTROL FOR STRESS PERIOD   25   TIME STEP 3019

 -------------------------------------------------------------------------------
                             SWR1 OUTPUT PRINT TIMES
                        STRESS PERIOD   25   TIME STEP  3019
 --------------- --------------- --------------- --------------- ---------------
     0.44868E+06                                                                
 -------------------------------------------------------------------------------
 
 SOLVING FOR HEAD 
 INITIAL HNEW IS AN EXACT SOLUTION.

 NO OUTPUT CONTROL FOR STRESS PERIOD   25   TIME STEP 3020

 -------------------------------------------------------------------------------
                             SWR1 OUTPUT PRINT TIMES
                        STRESS PERIOD   25   TIME STEP  3020
 --------------- --------------- --------------- --------------- ---------------
     0.44880E+06                                                                
 -------------------------------------------------------------------------------
 
 SOLVING FOR HEAD 
 INITIAL HNEW IS AN EXACT SOLUTION.

 NO OUTPUT CONTROL FOR STRESS PERIOD   25   TIME STEP 3021

 -------------------------------------------------------------------------------
                             SWR1 OUTPUT PRINT TIMES
                        STRESS PERIOD   25   TIME STEP  3021
 --------------- --------------- --------------- --------------- ---------------
     0.44892E+06                                                                
 -------------------------------------------------------------------------------
 
 SOLVING FOR HEAD 
 INITIAL HNEW IS AN EXACT SOLUTION.

 NO OUTPUT CONTROL FOR STRESS PERIOD   25   TIME STEP 3022

 -------------------------------------------------------------------------------
                             SWR1 OUTPUT PRINT TIMES
                        STRESS PERIOD   25   TIME STEP  3022
 --------------- --------------- --------------- --------------- ---------------
     0.44904E+06                                                                
 -------------------------------------------------------------------------------
 
 SOLVING FOR HEAD 
 INITIAL HNEW IS AN EXACT SOLUTION.

 NO OUTPUT CONTROL FOR STRESS PERIOD   25   TIME STEP 3023

 -------------------------------------------------------------------------------
                             SWR1 OUTPUT PRINT TIMES
                        STRESS PERIOD   25   TIME STEP  3023
 --------------- --------------- --------------- --------------- ---------------
     0.44916E+06                                                                
 -------------------------------------------------------------------------------
 
 SOLVING FOR HEAD 
 INITIAL HNEW IS AN EXACT SOLUTION.

 NO OUTPUT CONTROL FOR STRESS PERIOD   25   TIME STEP 3024

 -------------------------------------------------------------------------------
                             SWR1 OUTPUT PRINT TIMES
                        STRESS PERIOD   25   TIME STEP  3024
 --------------- --------------- --------------- --------------- ---------------
     0.44928E+06                                                                
 -------------------------------------------------------------------------------
 
 SOLVING FOR HEAD 
 INITIAL HNEW IS AN EXACT SOLUTION.

 NO OUTPUT CONTROL FOR STRESS PERIOD   25   TIME STEP 3025

 -------------------------------------------------------------------------------
                             SWR1 OUTPUT PRINT TIMES
                        STRESS PERIOD   25   TIME STEP  3025
 --------------- --------------- --------------- --------------- ---------------
     0.44940E+06                                                                
 -------------------------------------------------------------------------------
 
 SOLVING FOR HEAD 
 INITIAL HNEW IS AN EXACT SOLUTION.

 NO OUTPUT CONTROL FOR STRESS PERIOD   25   TIME STEP 3026

 -------------------------------------------------------------------------------
                             SWR1 OUTPUT PRINT TIMES
                        STRESS PERIOD   25   TIME STEP  3026
 --------------- --------------- --------------- --------------- ---------------
     0.44952E+06                                                                
 -------------------------------------------------------------------------------
 
 SOLVING FOR HEAD 
 INITIAL HNEW IS AN EXACT SOLUTION.

 NO OUTPUT CONTROL FOR STRESS PERIOD   25   TIME STEP 3027

 -------------------------------------------------------------------------------
                             SWR1 OUTPUT PRINT TIMES
                        STRESS PERIOD   25   TIME STEP  3027
 --------------- --------------- --------------- --------------- ---------------
     0.44964E+06                                                                
 -------------------------------------------------------------------------------
 
 SOLVING FOR HEAD 
 INITIAL HNEW IS AN EXACT SOLUTION.

 NO OUTPUT CONTROL FOR STRESS PERIOD   25   TIME STEP 3028

 -------------------------------------------------------------------------------
                             SWR1 OUTPUT PRINT TIMES
                        STRESS PERIOD   25   TIME STEP  3028
 --------------- --------------- --------------- --------------- ---------------
     0.44976E+06                                                                
 -------------------------------------------------------------------------------
 
 SOLVING FOR HEAD 
 INITIAL HNEW IS AN EXACT SOLUTION.

 NO OUTPUT CONTROL FOR STRESS PERIOD   25   TIME STEP 3029

 -------------------------------------------------------------------------------
                             SWR1 OUTPUT PRINT TIMES
                        STRESS PERIOD   25   TIME STEP  3029
 --------------- --------------- --------------- --------------- ---------------
     0.44988E+06                                                                
 -------------------------------------------------------------------------------
 
 SOLVING FOR HEAD 
 INITIAL HNEW IS AN EXACT SOLUTION.

 NO OUTPUT CONTROL FOR STRESS PERIOD   25   TIME STEP 3030

 -------------------------------------------------------------------------------
                             SWR1 OUTPUT PRINT TIMES
                        STRESS PERIOD   25   TIME STEP  3030
 --------------- --------------- --------------- --------------- ---------------
     0.45000E+06                                                                
 -------------------------------------------------------------------------------
 
 SOLVING FOR HEAD 
 INITIAL HNEW IS AN EXACT SOLUTION.

 NO OUTPUT CONTROL FOR STRESS PERIOD   25   TIME STEP 3031

 -------------------------------------------------------------------------------
                             SWR1 OUTPUT PRINT TIMES
                        STRESS PERIOD   25   TIME STEP  3031
 --------------- --------------- --------------- --------------- ---------------
     0.45012E+06                                                                
 -------------------------------------------------------------------------------
 
 SOLVING FOR HEAD 
 INITIAL HNEW IS AN EXACT SOLUTION.

 NO OUTPUT CONTROL FOR STRESS PERIOD   25   TIME STEP 3032

 -------------------------------------------------------------------------------
                             SWR1 OUTPUT PRINT TIMES
                        STRESS PERIOD   25   TIME STEP  3032
 --------------- --------------- --------------- --------------- ---------------
     0.45024E+06                                                                
 -------------------------------------------------------------------------------
 
 SOLVING FOR HEAD 
 INITIAL HNEW IS AN EXACT SOLUTION.

 NO OUTPUT CONTROL FOR STRESS PERIOD   25   TIME STEP 3033

 -------------------------------------------------------------------------------
                             SWR1 OUTPUT PRINT TIMES
                        STRESS PERIOD   25   TIME STEP  3033
 --------------- --------------- --------------- --------------- ---------------
     0.45036E+06                                                                
 -------------------------------------------------------------------------------
 
 SOLVING FOR HEAD 
 INITIAL HNEW IS AN EXACT SOLUTION.

 NO OUTPUT CONTROL FOR STRESS PERIOD   25   TIME STEP 3034

 -------------------------------------------------------------------------------
                             SWR1 OUTPUT PRINT TIMES
                        STRESS PERIOD   25   TIME STEP  3034
 --------------- --------------- --------------- --------------- ---------------
     0.45048E+06                                                                
 -------------------------------------------------------------------------------
 
 SOLVING FOR HEAD 
 INITIAL HNEW IS AN EXACT SOLUTION.

 NO OUTPUT CONTROL FOR STRESS PERIOD   25   TIME STEP 3035

 -------------------------------------------------------------------------------
                             SWR1 OUTPUT PRINT TIMES
                        STRESS PERIOD   25   TIME STEP  3035
 --------------- --------------- --------------- --------------- ---------------
     0.45060E+06                                                                
 -------------------------------------------------------------------------------
 
 SOLVING FOR HEAD 
 INITIAL HNEW IS AN EXACT SOLUTION.

 NO OUTPUT CONTROL FOR STRESS PERIOD   25   TIME STEP 3036

 -------------------------------------------------------------------------------
                             SWR1 OUTPUT PRINT TIMES
                        STRESS PERIOD   25   TIME STEP  3036
 --------------- --------------- --------------- --------------- ---------------
     0.45072E+06                                                                
 -------------------------------------------------------------------------------
 
 SOLVING FOR HEAD 
 INITIAL HNEW IS AN EXACT SOLUTION.

 NO OUTPUT CONTROL FOR STRESS PERIOD   25   TIME STEP 3037

 -------------------------------------------------------------------------------
                             SWR1 OUTPUT PRINT TIMES
                        STRESS PERIOD   25   TIME STEP  3037
 --------------- --------------- --------------- --------------- ---------------
     0.45084E+06                                                                
 -------------------------------------------------------------------------------
 
 SOLVING FOR HEAD 
 INITIAL HNEW IS AN EXACT SOLUTION.

 NO OUTPUT CONTROL FOR STRESS PERIOD   25   TIME STEP 3038

 -------------------------------------------------------------------------------
                             SWR1 OUTPUT PRINT TIMES
                        STRESS PERIOD   25   TIME STEP  3038
 --------------- --------------- --------------- --------------- ---------------
     0.45096E+06                                                                
 -------------------------------------------------------------------------------
 
 SOLVING FOR HEAD 
 INITIAL HNEW IS AN EXACT SOLUTION.

 NO OUTPUT CONTROL FOR STRESS PERIOD   25   TIME STEP 3039

 -------------------------------------------------------------------------------
                             SWR1 OUTPUT PRINT TIMES
                        STRESS PERIOD   25   TIME STEP  3039
 --------------- --------------- --------------- --------------- ---------------
     0.45108E+06                                                                
 -------------------------------------------------------------------------------
 
 SOLVING FOR HEAD 
 INITIAL HNEW IS AN EXACT SOLUTION.

 NO OUTPUT CONTROL FOR STRESS PERIOD   25   TIME STEP 3040

 -------------------------------------------------------------------------------
                             SWR1 OUTPUT PRINT TIMES
                        STRESS PERIOD   25   TIME STEP  3040
 --------------- --------------- --------------- --------------- ---------------
     0.45120E+06                                                                
 -------------------------------------------------------------------------------
 
 SOLVING FOR HEAD 
 INITIAL HNEW IS AN EXACT SOLUTION.

 NO OUTPUT CONTROL FOR STRESS PERIOD   25   TIME STEP 3041

 -------------------------------------------------------------------------------
                             SWR1 OUTPUT PRINT TIMES
                        STRESS PERIOD   25   TIME STEP  3041
 --------------- --------------- --------------- --------------- ---------------
     0.45132E+06                                                                
 -------------------------------------------------------------------------------
 
 SOLVING FOR HEAD 
 INITIAL HNEW IS AN EXACT SOLUTION.

 NO OUTPUT CONTROL FOR STRESS PERIOD   25   TIME STEP 3042

 -------------------------------------------------------------------------------
                             SWR1 OUTPUT PRINT TIMES
                        STRESS PERIOD   25   TIME STEP  3042
 --------------- --------------- --------------- --------------- ---------------
     0.45144E+06                                                                
 -------------------------------------------------------------------------------
 
 SOLVING FOR HEAD 
 INITIAL HNEW IS AN EXACT SOLUTION.

 NO OUTPUT CONTROL FOR STRESS PERIOD   25   TIME STEP 3043

 -------------------------------------------------------------------------------
                             SWR1 OUTPUT PRINT TIMES
                        STRESS PERIOD   25   TIME STEP  3043
 --------------- --------------- --------------- --------------- ---------------
     0.45156E+06                                                                
 -------------------------------------------------------------------------------
 
 SOLVING FOR HEAD 
 INITIAL HNEW IS AN EXACT SOLUTION.

 NO OUTPUT CONTROL FOR STRESS PERIOD   25   TIME STEP 3044

 -------------------------------------------------------------------------------
                             SWR1 OUTPUT PRINT TIMES
                        STRESS PERIOD   25   TIME STEP  3044
 --------------- --------------- --------------- --------------- ---------------
     0.45168E+06                                                                
 -------------------------------------------------------------------------------
 
 SOLVING FOR HEAD 
 INITIAL HNEW IS AN EXACT SOLUTION.

 NO OUTPUT CONTROL FOR STRESS PERIOD   25   TIME STEP 3045

 -------------------------------------------------------------------------------
                             SWR1 OUTPUT PRINT TIMES
                        STRESS PERIOD   25   TIME STEP  3045
 --------------- --------------- --------------- --------------- ---------------
     0.45180E+06                                                                
 -------------------------------------------------------------------------------
 
 SOLVING FOR HEAD 
 INITIAL HNEW IS AN EXACT SOLUTION.

 NO OUTPUT CONTROL FOR STRESS PERIOD   25   TIME STEP 3046

 -------------------------------------------------------------------------------
                             SWR1 OUTPUT PRINT TIMES
                        STRESS PERIOD   25   TIME STEP  3046
 --------------- --------------- --------------- --------------- ---------------
     0.45192E+06                                                                
 -------------------------------------------------------------------------------
 
 SOLVING FOR HEAD 
 INITIAL HNEW IS AN EXACT SOLUTION.

 NO OUTPUT CONTROL FOR STRESS PERIOD   25   TIME STEP 3047

 -------------------------------------------------------------------------------
                             SWR1 OUTPUT PRINT TIMES
                        STRESS PERIOD   25   TIME STEP  3047
 --------------- --------------- --------------- --------------- ---------------
     0.45204E+06                                                                
 -------------------------------------------------------------------------------
 
 SOLVING FOR HEAD 
 INITIAL HNEW IS AN EXACT SOLUTION.

 NO OUTPUT CONTROL FOR STRESS PERIOD   25   TIME STEP 3048

 -------------------------------------------------------------------------------
                             SWR1 OUTPUT PRINT TIMES
                        STRESS PERIOD   25   TIME STEP  3048
 --------------- --------------- --------------- --------------- ---------------
     0.45216E+06                                                                
 -------------------------------------------------------------------------------
 
 SOLVING FOR HEAD 
 INITIAL HNEW IS AN EXACT SOLUTION.

 NO OUTPUT CONTROL FOR STRESS PERIOD   25   TIME STEP 3049

 -------------------------------------------------------------------------------
                             SWR1 OUTPUT PRINT TIMES
                        STRESS PERIOD   25   TIME STEP  3049
 --------------- --------------- --------------- --------------- ---------------
     0.45228E+06                                                                
 -------------------------------------------------------------------------------
 
 SOLVING FOR HEAD 
 INITIAL HNEW IS AN EXACT SOLUTION.

 NO OUTPUT CONTROL FOR STRESS PERIOD   25   TIME STEP 3050

 -------------------------------------------------------------------------------
                             SWR1 OUTPUT PRINT TIMES
                        STRESS PERIOD   25   TIME STEP  3050
 --------------- --------------- --------------- --------------- ---------------
     0.45240E+06                                                                
 -------------------------------------------------------------------------------
 
 SOLVING FOR HEAD 
 INITIAL HNEW IS AN EXACT SOLUTION.

 NO OUTPUT CONTROL FOR STRESS PERIOD   25   TIME STEP 3051

 -------------------------------------------------------------------------------
                             SWR1 OUTPUT PRINT TIMES
                        STRESS PERIOD   25   TIME STEP  3051
 --------------- --------------- --------------- --------------- ---------------
     0.45252E+06                                                                
 -------------------------------------------------------------------------------
 
 SOLVING FOR HEAD 
 INITIAL HNEW IS AN EXACT SOLUTION.

 NO OUTPUT CONTROL FOR STRESS PERIOD   25   TIME STEP 3052

 -------------------------------------------------------------------------------
                             SWR1 OUTPUT PRINT TIMES
                        STRESS PERIOD   25   TIME STEP  3052
 --------------- --------------- --------------- --------------- ---------------
     0.45264E+06                                                                
 -------------------------------------------------------------------------------
 
 SOLVING FOR HEAD 
 INITIAL HNEW IS AN EXACT SOLUTION.

 NO OUTPUT CONTROL FOR STRESS PERIOD   25   TIME STEP 3053

 -------------------------------------------------------------------------------
                             SWR1 OUTPUT PRINT TIMES
                        STRESS PERIOD   25   TIME STEP  3053
 --------------- --------------- --------------- --------------- ---------------
     0.45276E+06                                                                
 -------------------------------------------------------------------------------
 
 SOLVING FOR HEAD 
 INITIAL HNEW IS AN EXACT SOLUTION.

 NO OUTPUT CONTROL FOR STRESS PERIOD   25   TIME STEP 3054

 -------------------------------------------------------------------------------
                             SWR1 OUTPUT PRINT TIMES
                        STRESS PERIOD   25   TIME STEP  3054
 --------------- --------------- --------------- --------------- ---------------
     0.45288E+06                                                                
 -------------------------------------------------------------------------------
 
 SOLVING FOR HEAD 
 INITIAL HNEW IS AN EXACT SOLUTION.

 NO OUTPUT CONTROL FOR STRESS PERIOD   25   TIME STEP 3055

 -------------------------------------------------------------------------------
                             SWR1 OUTPUT PRINT TIMES
                        STRESS PERIOD   25   TIME STEP  3055
 --------------- --------------- --------------- --------------- ---------------
     0.45300E+06                                                                
 -------------------------------------------------------------------------------
 
 SOLVING FOR HEAD 
 INITIAL HNEW IS AN EXACT SOLUTION.

 NO OUTPUT CONTROL FOR STRESS PERIOD   25   TIME STEP 3056

 -------------------------------------------------------------------------------
                             SWR1 OUTPUT PRINT TIMES
                        STRESS PERIOD   25   TIME STEP  3056
 --------------- --------------- --------------- --------------- ---------------
     0.45312E+06                                                                
 -------------------------------------------------------------------------------
 
 SOLVING FOR HEAD 
 INITIAL HNEW IS AN EXACT SOLUTION.

 NO OUTPUT CONTROL FOR STRESS PERIOD   25   TIME STEP 3057

 -------------------------------------------------------------------------------
                             SWR1 OUTPUT PRINT TIMES
                        STRESS PERIOD   25   TIME STEP  3057
 --------------- --------------- --------------- --------------- ---------------
     0.45324E+06                                                                
 -------------------------------------------------------------------------------
 
 SOLVING FOR HEAD 
 INITIAL HNEW IS AN EXACT SOLUTION.

 NO OUTPUT CONTROL FOR STRESS PERIOD   25   TIME STEP 3058

 -------------------------------------------------------------------------------
                             SWR1 OUTPUT PRINT TIMES
                        STRESS PERIOD   25   TIME STEP  3058
 --------------- --------------- --------------- --------------- ---------------
     0.45336E+06                                                                
 -------------------------------------------------------------------------------
 
 SOLVING FOR HEAD 
 INITIAL HNEW IS AN EXACT SOLUTION.

 NO OUTPUT CONTROL FOR STRESS PERIOD   25   TIME STEP 3059

 -------------------------------------------------------------------------------
                             SWR1 OUTPUT PRINT TIMES
                        STRESS PERIOD   25   TIME STEP  3059
 --------------- --------------- --------------- --------------- ---------------
     0.45348E+06                                                                
 -------------------------------------------------------------------------------
 
 SOLVING FOR HEAD 
 INITIAL HNEW IS AN EXACT SOLUTION.

 NO OUTPUT CONTROL FOR STRESS PERIOD   25   TIME STEP 3060

 -------------------------------------------------------------------------------
                             SWR1 OUTPUT PRINT TIMES
                        STRESS PERIOD   25   TIME STEP  3060
 --------------- --------------- --------------- --------------- ---------------
     0.45360E+06                                                                
 -------------------------------------------------------------------------------
 
 SOLVING FOR HEAD 
 INITIAL HNEW IS AN EXACT SOLUTION.

 NO OUTPUT CONTROL FOR STRESS PERIOD   25   TIME STEP 3061

 -------------------------------------------------------------------------------
                             SWR1 OUTPUT PRINT TIMES
                        STRESS PERIOD   25   TIME STEP  3061
 --------------- --------------- --------------- --------------- ---------------
     0.45372E+06                                                                
 -------------------------------------------------------------------------------
 
 SOLVING FOR HEAD 
 INITIAL HNEW IS AN EXACT SOLUTION.

 NO OUTPUT CONTROL FOR STRESS PERIOD   25   TIME STEP 3062

 -------------------------------------------------------------------------------
                             SWR1 OUTPUT PRINT TIMES
                        STRESS PERIOD   25   TIME STEP  3062
 --------------- --------------- --------------- --------------- ---------------
     0.45384E+06                                                                
 -------------------------------------------------------------------------------
 
 SOLVING FOR HEAD 
 INITIAL HNEW IS AN EXACT SOLUTION.

 NO OUTPUT CONTROL FOR STRESS PERIOD   25   TIME STEP 3063

 -------------------------------------------------------------------------------
                             SWR1 OUTPUT PRINT TIMES
                        STRESS PERIOD   25   TIME STEP  3063
 --------------- --------------- --------------- --------------- ---------------
     0.45396E+06                                                                
 -------------------------------------------------------------------------------
 
 SOLVING FOR HEAD 
 INITIAL HNEW IS AN EXACT SOLUTION.

 NO OUTPUT CONTROL FOR STRESS PERIOD   25   TIME STEP 3064

 -------------------------------------------------------------------------------
                             SWR1 OUTPUT PRINT TIMES
                        STRESS PERIOD   25   TIME STEP  3064
 --------------- --------------- --------------- --------------- ---------------
     0.45408E+06                                                                
 -------------------------------------------------------------------------------
 
 SOLVING FOR HEAD 
 INITIAL HNEW IS AN EXACT SOLUTION.

 NO OUTPUT CONTROL FOR STRESS PERIOD   25   TIME STEP 3065

 -------------------------------------------------------------------------------
                             SWR1 OUTPUT PRINT TIMES
                        STRESS PERIOD   25   TIME STEP  3065
 --------------- --------------- --------------- --------------- ---------------
     0.45420E+06                                                                
 -------------------------------------------------------------------------------
 
 SOLVING FOR HEAD 
 INITIAL HNEW IS AN EXACT SOLUTION.

 NO OUTPUT CONTROL FOR STRESS PERIOD   25   TIME STEP 3066

 -------------------------------------------------------------------------------
                             SWR1 OUTPUT PRINT TIMES
                        STRESS PERIOD   25   TIME STEP  3066
 --------------- --------------- --------------- --------------- ---------------
     0.45432E+06                                                                
 -------------------------------------------------------------------------------
 
 SOLVING FOR HEAD 
 INITIAL HNEW IS AN EXACT SOLUTION.

 NO OUTPUT CONTROL FOR STRESS PERIOD   25   TIME STEP 3067

 -------------------------------------------------------------------------------
                             SWR1 OUTPUT PRINT TIMES
                        STRESS PERIOD   25   TIME STEP  3067
 --------------- --------------- --------------- --------------- ---------------
     0.45444E+06                                                                
 -------------------------------------------------------------------------------
 
 SOLVING FOR HEAD 
 INITIAL HNEW IS AN EXACT SOLUTION.

 NO OUTPUT CONTROL FOR STRESS PERIOD   25   TIME STEP 3068

 -------------------------------------------------------------------------------
                             SWR1 OUTPUT PRINT TIMES
                        STRESS PERIOD   25   TIME STEP  3068
 --------------- --------------- --------------- --------------- ---------------
     0.45456E+06                                                                
 -------------------------------------------------------------------------------
 
 SOLVING FOR HEAD 
 INITIAL HNEW IS AN EXACT SOLUTION.

 NO OUTPUT CONTROL FOR STRESS PERIOD   25   TIME STEP 3069

 -------------------------------------------------------------------------------
                             SWR1 OUTPUT PRINT TIMES
                        STRESS PERIOD   25   TIME STEP  3069
 --------------- --------------- --------------- --------------- ---------------
     0.45468E+06                                                                
 -------------------------------------------------------------------------------
 
 SOLVING FOR HEAD 
 INITIAL HNEW IS AN EXACT SOLUTION.

 NO OUTPUT CONTROL FOR STRESS PERIOD   25   TIME STEP 3070

 -------------------------------------------------------------------------------
                             SWR1 OUTPUT PRINT TIMES
                        STRESS PERIOD   25   TIME STEP  3070
 --------------- --------------- --------------- --------------- ---------------
     0.45480E+06                                                                
 -------------------------------------------------------------------------------
 
 SOLVING FOR HEAD 
 INITIAL HNEW IS AN EXACT SOLUTION.

 NO OUTPUT CONTROL FOR STRESS PERIOD   25   TIME STEP 3071

 -------------------------------------------------------------------------------
                             SWR1 OUTPUT PRINT TIMES
                        STRESS PERIOD   25   TIME STEP  3071
 --------------- --------------- --------------- --------------- ---------------
     0.45492E+06                                                                
 -------------------------------------------------------------------------------
 
 SOLVING FOR HEAD 
 INITIAL HNEW IS AN EXACT SOLUTION.

 NO OUTPUT CONTROL FOR STRESS PERIOD   25   TIME STEP 3072

 -------------------------------------------------------------------------------
                             SWR1 OUTPUT PRINT TIMES
                        STRESS PERIOD   25   TIME STEP  3072
 --------------- --------------- --------------- --------------- ---------------
     0.45504E+06                                                                
 -------------------------------------------------------------------------------
 
 SOLVING FOR HEAD 
 INITIAL HNEW IS AN EXACT SOLUTION.

 NO OUTPUT CONTROL FOR STRESS PERIOD   25   TIME STEP 3073

 -------------------------------------------------------------------------------
                             SWR1 OUTPUT PRINT TIMES
                        STRESS PERIOD   25   TIME STEP  3073
 --------------- --------------- --------------- --------------- ---------------
     0.45516E+06                                                                
 -------------------------------------------------------------------------------
 
 SOLVING FOR HEAD 
 INITIAL HNEW IS AN EXACT SOLUTION.

 NO OUTPUT CONTROL FOR STRESS PERIOD   25   TIME STEP 3074

 -------------------------------------------------------------------------------
                             SWR1 OUTPUT PRINT TIMES
                        STRESS PERIOD   25   TIME STEP  3074
 --------------- --------------- --------------- --------------- ---------------
     0.45528E+06                                                                
 -------------------------------------------------------------------------------
 
 SOLVING FOR HEAD 
 INITIAL HNEW IS AN EXACT SOLUTION.

 NO OUTPUT CONTROL FOR STRESS PERIOD   25   TIME STEP 3075

 -------------------------------------------------------------------------------
                             SWR1 OUTPUT PRINT TIMES
                        STRESS PERIOD   25   TIME STEP  3075
 --------------- --------------- --------------- --------------- ---------------
     0.45540E+06                                                                
 -------------------------------------------------------------------------------
 
 SOLVING FOR HEAD 
 INITIAL HNEW IS AN EXACT SOLUTION.

 NO OUTPUT CONTROL FOR STRESS PERIOD   25   TIME STEP 3076

 -------------------------------------------------------------------------------
                             SWR1 OUTPUT PRINT TIMES
                        STRESS PERIOD   25   TIME STEP  3076
 --------------- --------------- --------------- --------------- ---------------
     0.45552E+06                                                                
 -------------------------------------------------------------------------------
 
 SOLVING FOR HEAD 
 INITIAL HNEW IS AN EXACT SOLUTION.

 NO OUTPUT CONTROL FOR STRESS PERIOD   25   TIME STEP 3077

 -------------------------------------------------------------------------------
                             SWR1 OUTPUT PRINT TIMES
                        STRESS PERIOD   25   TIME STEP  3077
 --------------- --------------- --------------- --------------- ---------------
     0.45564E+06                                                                
 -------------------------------------------------------------------------------
 
 SOLVING FOR HEAD 
 INITIAL HNEW IS AN EXACT SOLUTION.

 NO OUTPUT CONTROL FOR STRESS PERIOD   25   TIME STEP 3078

 -------------------------------------------------------------------------------
                             SWR1 OUTPUT PRINT TIMES
                        STRESS PERIOD   25   TIME STEP  3078
 --------------- --------------- --------------- --------------- ---------------
     0.45576E+06                                                                
 -------------------------------------------------------------------------------
 
 SOLVING FOR HEAD 
 INITIAL HNEW IS AN EXACT SOLUTION.

 NO OUTPUT CONTROL FOR STRESS PERIOD   25   TIME STEP 3079

 -------------------------------------------------------------------------------
                             SWR1 OUTPUT PRINT TIMES
                        STRESS PERIOD   25   TIME STEP  3079
 --------------- --------------- --------------- --------------- ---------------
     0.45588E+06                                                                
 -------------------------------------------------------------------------------
 
 SOLVING FOR HEAD 
 INITIAL HNEW IS AN EXACT SOLUTION.

 NO OUTPUT CONTROL FOR STRESS PERIOD   25   TIME STEP 3080

 -------------------------------------------------------------------------------
                             SWR1 OUTPUT PRINT TIMES
                        STRESS PERIOD   25   TIME STEP  3080
 --------------- --------------- --------------- --------------- ---------------
     0.45600E+06                                                                
 -------------------------------------------------------------------------------
 
 SOLVING FOR HEAD 
 INITIAL HNEW IS AN EXACT SOLUTION.

 NO OUTPUT CONTROL FOR STRESS PERIOD   25   TIME STEP 3081

 -------------------------------------------------------------------------------
                             SWR1 OUTPUT PRINT TIMES
                        STRESS PERIOD   25   TIME STEP  3081
 --------------- --------------- --------------- --------------- ---------------
     0.45612E+06                                                                
 -------------------------------------------------------------------------------
 
 SOLVING FOR HEAD 
 INITIAL HNEW IS AN EXACT SOLUTION.

 NO OUTPUT CONTROL FOR STRESS PERIOD   25   TIME STEP 3082

 -------------------------------------------------------------------------------
                             SWR1 OUTPUT PRINT TIMES
                        STRESS PERIOD   25   TIME STEP  3082
 --------------- --------------- --------------- --------------- ---------------
     0.45624E+06                                                                
 -------------------------------------------------------------------------------
 
 SOLVING FOR HEAD 
 INITIAL HNEW IS AN EXACT SOLUTION.

 NO OUTPUT CONTROL FOR STRESS PERIOD   25   TIME STEP 3083

 -------------------------------------------------------------------------------
                             SWR1 OUTPUT PRINT TIMES
                        STRESS PERIOD   25   TIME STEP  3083
 --------------- --------------- --------------- --------------- ---------------
     0.45636E+06                                                                
 -------------------------------------------------------------------------------
 
 SOLVING FOR HEAD 
 INITIAL HNEW IS AN EXACT SOLUTION.

 NO OUTPUT CONTROL FOR STRESS PERIOD   25   TIME STEP 3084

 -------------------------------------------------------------------------------
                             SWR1 OUTPUT PRINT TIMES
                        STRESS PERIOD   25   TIME STEP  3084
 --------------- --------------- --------------- --------------- ---------------
     0.45648E+06                                                                
 -------------------------------------------------------------------------------
 
 SOLVING FOR HEAD 
 INITIAL HNEW IS AN EXACT SOLUTION.

 NO OUTPUT CONTROL FOR STRESS PERIOD   25   TIME STEP 3085

 -------------------------------------------------------------------------------
                             SWR1 OUTPUT PRINT TIMES
                        STRESS PERIOD   25   TIME STEP  3085
 --------------- --------------- --------------- --------------- ---------------
     0.45660E+06                                                                
 -------------------------------------------------------------------------------
 
 SOLVING FOR HEAD 
 INITIAL HNEW IS AN EXACT SOLUTION.

 NO OUTPUT CONTROL FOR STRESS PERIOD   25   TIME STEP 3086

 -------------------------------------------------------------------------------
                             SWR1 OUTPUT PRINT TIMES
                        STRESS PERIOD   25   TIME STEP  3086
 --------------- --------------- --------------- --------------- ---------------
     0.45672E+06                                                                
 -------------------------------------------------------------------------------
 
 SOLVING FOR HEAD 
 INITIAL HNEW IS AN EXACT SOLUTION.

 NO OUTPUT CONTROL FOR STRESS PERIOD   25   TIME STEP 3087

 -------------------------------------------------------------------------------
                             SWR1 OUTPUT PRINT TIMES
                        STRESS PERIOD   25   TIME STEP  3087
 --------------- --------------- --------------- --------------- ---------------
     0.45684E+06                                                                
 -------------------------------------------------------------------------------
 
 SOLVING FOR HEAD 
 INITIAL HNEW IS AN EXACT SOLUTION.

 NO OUTPUT CONTROL FOR STRESS PERIOD   25   TIME STEP 3088

 -------------------------------------------------------------------------------
                             SWR1 OUTPUT PRINT TIMES
                        STRESS PERIOD   25   TIME STEP  3088
 --------------- --------------- --------------- --------------- ---------------
     0.45696E+06                                                                
 -------------------------------------------------------------------------------
 
 SOLVING FOR HEAD 
 INITIAL HNEW IS AN EXACT SOLUTION.

 NO OUTPUT CONTROL FOR STRESS PERIOD   25   TIME STEP 3089

 -------------------------------------------------------------------------------
                             SWR1 OUTPUT PRINT TIMES
                        STRESS PERIOD   25   TIME STEP  3089
 --------------- --------------- --------------- --------------- ---------------
     0.45708E+06                                                                
 -------------------------------------------------------------------------------
 
 SOLVING FOR HEAD 
 INITIAL HNEW IS AN EXACT SOLUTION.

 NO OUTPUT CONTROL FOR STRESS PERIOD   25   TIME STEP 3090

 -------------------------------------------------------------------------------
                             SWR1 OUTPUT PRINT TIMES
                        STRESS PERIOD   25   TIME STEP  3090
 --------------- --------------- --------------- --------------- ---------------
     0.45720E+06                                                                
 -------------------------------------------------------------------------------
 
 SOLVING FOR HEAD 
 INITIAL HNEW IS AN EXACT SOLUTION.

 NO OUTPUT CONTROL FOR STRESS PERIOD   25   TIME STEP 3091

 -------------------------------------------------------------------------------
                             SWR1 OUTPUT PRINT TIMES
                        STRESS PERIOD   25   TIME STEP  3091
 --------------- --------------- --------------- --------------- ---------------
     0.45732E+06                                                                
 -------------------------------------------------------------------------------
 
 SOLVING FOR HEAD 
 INITIAL HNEW IS AN EXACT SOLUTION.

 NO OUTPUT CONTROL FOR STRESS PERIOD   25   TIME STEP 3092

 -------------------------------------------------------------------------------
                             SWR1 OUTPUT PRINT TIMES
                        STRESS PERIOD   25   TIME STEP  3092
 --------------- --------------- --------------- --------------- ---------------
     0.45744E+06                                                                
 -------------------------------------------------------------------------------
 
 SOLVING FOR HEAD 
 INITIAL HNEW IS AN EXACT SOLUTION.

 NO OUTPUT CONTROL FOR STRESS PERIOD   25   TIME STEP 3093

 -------------------------------------------------------------------------------
                             SWR1 OUTPUT PRINT TIMES
                        STRESS PERIOD   25   TIME STEP  3093
 --------------- --------------- --------------- --------------- ---------------
     0.45756E+06                                                                
 -------------------------------------------------------------------------------
 
 SOLVING FOR HEAD 
 INITIAL HNEW IS AN EXACT SOLUTION.

 NO OUTPUT CONTROL FOR STRESS PERIOD   25   TIME STEP 3094

 -------------------------------------------------------------------------------
                             SWR1 OUTPUT PRINT TIMES
                        STRESS PERIOD   25   TIME STEP  3094
 --------------- --------------- --------------- --------------- ---------------
     0.45768E+06                                                                
 -------------------------------------------------------------------------------
 
 SOLVING FOR HEAD 
 INITIAL HNEW IS AN EXACT SOLUTION.

 NO OUTPUT CONTROL FOR STRESS PERIOD   25   TIME STEP 3095

 -------------------------------------------------------------------------------
                             SWR1 OUTPUT PRINT TIMES
                        STRESS PERIOD   25   TIME STEP  3095
 --------------- --------------- --------------- --------------- ---------------
     0.45780E+06                                                                
 -------------------------------------------------------------------------------
 
 SOLVING FOR HEAD 
 INITIAL HNEW IS AN EXACT SOLUTION.

 NO OUTPUT CONTROL FOR STRESS PERIOD   25   TIME STEP 3096

 -------------------------------------------------------------------------------
                             SWR1 OUTPUT PRINT TIMES
                        STRESS PERIOD   25   TIME STEP  3096
 --------------- --------------- --------------- --------------- ---------------
     0.45792E+06                                                                
 -------------------------------------------------------------------------------
 
 SOLVING FOR HEAD 
 INITIAL HNEW IS AN EXACT SOLUTION.

 NO OUTPUT CONTROL FOR STRESS PERIOD   25   TIME STEP 3097

 -------------------------------------------------------------------------------
                             SWR1 OUTPUT PRINT TIMES
                        STRESS PERIOD   25   TIME STEP  3097
 --------------- --------------- --------------- --------------- ---------------
     0.45804E+06                                                                
 -------------------------------------------------------------------------------
 
 SOLVING FOR HEAD 
 INITIAL HNEW IS AN EXACT SOLUTION.

 NO OUTPUT CONTROL FOR STRESS PERIOD   25   TIME STEP 3098

 -------------------------------------------------------------------------------
                             SWR1 OUTPUT PRINT TIMES
                        STRESS PERIOD   25   TIME STEP  3098
 --------------- --------------- --------------- --------------- ---------------
     0.45816E+06                                                                
 -------------------------------------------------------------------------------
 
 SOLVING FOR HEAD 
 INITIAL HNEW IS AN EXACT SOLUTION.

 NO OUTPUT CONTROL FOR STRESS PERIOD   25   TIME STEP 3099

 -------------------------------------------------------------------------------
                             SWR1 OUTPUT PRINT TIMES
                        STRESS PERIOD   25   TIME STEP  3099
 --------------- --------------- --------------- --------------- ---------------
     0.45828E+06                                                                
 -------------------------------------------------------------------------------
 
 SOLVING FOR HEAD 
 INITIAL HNEW IS AN EXACT SOLUTION.

 NO OUTPUT CONTROL FOR STRESS PERIOD   25   TIME STEP 3100

 -------------------------------------------------------------------------------
                             SWR1 OUTPUT PRINT TIMES
                        STRESS PERIOD   25   TIME STEP  3100
 --------------- --------------- --------------- --------------- ---------------
     0.45840E+06                                                                
 -------------------------------------------------------------------------------
 
 SOLVING FOR HEAD 
 INITIAL HNEW IS AN EXACT SOLUTION.

 NO OUTPUT CONTROL FOR STRESS PERIOD   25   TIME STEP 3101

 -------------------------------------------------------------------------------
                             SWR1 OUTPUT PRINT TIMES
                        STRESS PERIOD   25   TIME STEP  3101
 --------------- --------------- --------------- --------------- ---------------
     0.45852E+06                                                                
 -------------------------------------------------------------------------------
 
 SOLVING FOR HEAD 
 INITIAL HNEW IS AN EXACT SOLUTION.

 NO OUTPUT CONTROL FOR STRESS PERIOD   25   TIME STEP 3102

 -------------------------------------------------------------------------------
                             SWR1 OUTPUT PRINT TIMES
                        STRESS PERIOD   25   TIME STEP  3102
 --------------- --------------- --------------- --------------- ---------------
     0.45864E+06                                                                
 -------------------------------------------------------------------------------
 
 SOLVING FOR HEAD 
 INITIAL HNEW IS AN EXACT SOLUTION.

 NO OUTPUT CONTROL FOR STRESS PERIOD   25   TIME STEP 3103

 -------------------------------------------------------------------------------
                             SWR1 OUTPUT PRINT TIMES
                        STRESS PERIOD   25   TIME STEP  3103
 --------------- --------------- --------------- --------------- ---------------
     0.45876E+06                                                                
 -------------------------------------------------------------------------------
 
 SOLVING FOR HEAD 
 INITIAL HNEW IS AN EXACT SOLUTION.

 NO OUTPUT CONTROL FOR STRESS PERIOD   25   TIME STEP 3104

 -------------------------------------------------------------------------------
                             SWR1 OUTPUT PRINT TIMES
                        STRESS PERIOD   25   TIME STEP  3104
 --------------- --------------- --------------- --------------- ---------------
     0.45888E+06                                                                
 -------------------------------------------------------------------------------
 
 SOLVING FOR HEAD 
 INITIAL HNEW IS AN EXACT SOLUTION.

 NO OUTPUT CONTROL FOR STRESS PERIOD   25   TIME STEP 3105

 -------------------------------------------------------------------------------
                             SWR1 OUTPUT PRINT TIMES
                        STRESS PERIOD   25   TIME STEP  3105
 --------------- --------------- --------------- --------------- ---------------
     0.45900E+06                                                                
 -------------------------------------------------------------------------------
 
 SOLVING FOR HEAD 
 INITIAL HNEW IS AN EXACT SOLUTION.

 NO OUTPUT CONTROL FOR STRESS PERIOD   25   TIME STEP 3106

 -------------------------------------------------------------------------------
                             SWR1 OUTPUT PRINT TIMES
                        STRESS PERIOD   25   TIME STEP  3106
 --------------- --------------- --------------- --------------- ---------------
     0.45912E+06                                                                
 -------------------------------------------------------------------------------
 
 SOLVING FOR HEAD 
 INITIAL HNEW IS AN EXACT SOLUTION.

 NO OUTPUT CONTROL FOR STRESS PERIOD   25   TIME STEP 3107

 -------------------------------------------------------------------------------
                             SWR1 OUTPUT PRINT TIMES
                        STRESS PERIOD   25   TIME STEP  3107
 --------------- --------------- --------------- --------------- ---------------
     0.45924E+06                                                                
 -------------------------------------------------------------------------------
 
 SOLVING FOR HEAD 
 INITIAL HNEW IS AN EXACT SOLUTION.

 NO OUTPUT CONTROL FOR STRESS PERIOD   25   TIME STEP 3108

 -------------------------------------------------------------------------------
                             SWR1 OUTPUT PRINT TIMES
                        STRESS PERIOD   25   TIME STEP  3108
 --------------- --------------- --------------- --------------- ---------------
     0.45936E+06                                                                
 -------------------------------------------------------------------------------
 
 SOLVING FOR HEAD 
 INITIAL HNEW IS AN EXACT SOLUTION.

 NO OUTPUT CONTROL FOR STRESS PERIOD   25   TIME STEP 3109

 -------------------------------------------------------------------------------
                             SWR1 OUTPUT PRINT TIMES
                        STRESS PERIOD   25   TIME STEP  3109
 --------------- --------------- --------------- --------------- ---------------
     0.45948E+06                                                                
 -------------------------------------------------------------------------------
 
 SOLVING FOR HEAD 
 INITIAL HNEW IS AN EXACT SOLUTION.

 NO OUTPUT CONTROL FOR STRESS PERIOD   25   TIME STEP 3110

 -------------------------------------------------------------------------------
                             SWR1 OUTPUT PRINT TIMES
                        STRESS PERIOD   25   TIME STEP  3110
 --------------- --------------- --------------- --------------- ---------------
     0.45960E+06                                                                
 -------------------------------------------------------------------------------
 
 SOLVING FOR HEAD 
 INITIAL HNEW IS AN EXACT SOLUTION.

 NO OUTPUT CONTROL FOR STRESS PERIOD   25   TIME STEP 3111

 -------------------------------------------------------------------------------
                             SWR1 OUTPUT PRINT TIMES
                        STRESS PERIOD   25   TIME STEP  3111
 --------------- --------------- --------------- --------------- ---------------
     0.45972E+06                                                                
 -------------------------------------------------------------------------------
 
 SOLVING FOR HEAD 
 INITIAL HNEW IS AN EXACT SOLUTION.

 NO OUTPUT CONTROL FOR STRESS PERIOD   25   TIME STEP 3112

 -------------------------------------------------------------------------------
                             SWR1 OUTPUT PRINT TIMES
                        STRESS PERIOD   25   TIME STEP  3112
 --------------- --------------- --------------- --------------- ---------------
     0.45984E+06                                                                
 -------------------------------------------------------------------------------
 
 SOLVING FOR HEAD 
 INITIAL HNEW IS AN EXACT SOLUTION.

 NO OUTPUT CONTROL FOR STRESS PERIOD   25   TIME STEP 3113

 -------------------------------------------------------------------------------
                             SWR1 OUTPUT PRINT TIMES
                        STRESS PERIOD   25   TIME STEP  3113
 --------------- --------------- --------------- --------------- ---------------
     0.45996E+06                                                                
 -------------------------------------------------------------------------------
 
 SOLVING FOR HEAD 
 INITIAL HNEW IS AN EXACT SOLUTION.

 NO OUTPUT CONTROL FOR STRESS PERIOD   25   TIME STEP 3114

 -------------------------------------------------------------------------------
                             SWR1 OUTPUT PRINT TIMES
                        STRESS PERIOD   25   TIME STEP  3114
 --------------- --------------- --------------- --------------- ---------------
     0.46008E+06                                                                
 -------------------------------------------------------------------------------
 
 SOLVING FOR HEAD 
 INITIAL HNEW IS AN EXACT SOLUTION.

 NO OUTPUT CONTROL FOR STRESS PERIOD   25   TIME STEP 3115

 -------------------------------------------------------------------------------
                             SWR1 OUTPUT PRINT TIMES
                        STRESS PERIOD   25   TIME STEP  3115
 --------------- --------------- --------------- --------------- ---------------
     0.46020E+06                                                                
 -------------------------------------------------------------------------------
 
 SOLVING FOR HEAD 
 INITIAL HNEW IS AN EXACT SOLUTION.

 NO OUTPUT CONTROL FOR STRESS PERIOD   25   TIME STEP 3116

 -------------------------------------------------------------------------------
                             SWR1 OUTPUT PRINT TIMES
                        STRESS PERIOD   25   TIME STEP  3116
 --------------- --------------- --------------- --------------- ---------------
     0.46032E+06                                                                
 -------------------------------------------------------------------------------
 
 SOLVING FOR HEAD 
 INITIAL HNEW IS AN EXACT SOLUTION.

 NO OUTPUT CONTROL FOR STRESS PERIOD   25   TIME STEP 3117

 -------------------------------------------------------------------------------
                             SWR1 OUTPUT PRINT TIMES
                        STRESS PERIOD   25   TIME STEP  3117
 --------------- --------------- --------------- --------------- ---------------
     0.46044E+06                                                                
 -------------------------------------------------------------------------------
 
 SOLVING FOR HEAD 
 INITIAL HNEW IS AN EXACT SOLUTION.

 NO OUTPUT CONTROL FOR STRESS PERIOD   25   TIME STEP 3118

 -------------------------------------------------------------------------------
                             SWR1 OUTPUT PRINT TIMES
                        STRESS PERIOD   25   TIME STEP  3118
 --------------- --------------- --------------- --------------- ---------------
     0.46056E+06                                                                
 -------------------------------------------------------------------------------
 
 SOLVING FOR HEAD 
 INITIAL HNEW IS AN EXACT SOLUTION.

 NO OUTPUT CONTROL FOR STRESS PERIOD   25   TIME STEP 3119

 -------------------------------------------------------------------------------
                             SWR1 OUTPUT PRINT TIMES
                        STRESS PERIOD   25   TIME STEP  3119
 --------------- --------------- --------------- --------------- ---------------
     0.46068E+06                                                                
 -------------------------------------------------------------------------------
 
 SOLVING FOR HEAD 
 INITIAL HNEW IS AN EXACT SOLUTION.

 NO OUTPUT CONTROL FOR STRESS PERIOD   25   TIME STEP 3120

 -------------------------------------------------------------------------------
                             SWR1 OUTPUT PRINT TIMES
                        STRESS PERIOD   25   TIME STEP  3120
 --------------- --------------- --------------- --------------- ---------------
     0.46080E+06                                                                
 -------------------------------------------------------------------------------
 
 SOLVING FOR HEAD 
 INITIAL HNEW IS AN EXACT SOLUTION.

 NO OUTPUT CONTROL FOR STRESS PERIOD   25   TIME STEP 3121

 -------------------------------------------------------------------------------
                             SWR1 OUTPUT PRINT TIMES
                        STRESS PERIOD   25   TIME STEP  3121
 --------------- --------------- --------------- --------------- ---------------
     0.46092E+06                                                                
 -------------------------------------------------------------------------------
 
 SOLVING FOR HEAD 
 INITIAL HNEW IS AN EXACT SOLUTION.

 NO OUTPUT CONTROL FOR STRESS PERIOD   25   TIME STEP 3122

 -------------------------------------------------------------------------------
                             SWR1 OUTPUT PRINT TIMES
                        STRESS PERIOD   25   TIME STEP  3122
 --------------- --------------- --------------- --------------- ---------------
     0.46104E+06                                                                
 -------------------------------------------------------------------------------
 
 SOLVING FOR HEAD 
 INITIAL HNEW IS AN EXACT SOLUTION.

 NO OUTPUT CONTROL FOR STRESS PERIOD   25   TIME STEP 3123

 -------------------------------------------------------------------------------
                             SWR1 OUTPUT PRINT TIMES
                        STRESS PERIOD   25   TIME STEP  3123
 --------------- --------------- --------------- --------------- ---------------
     0.46116E+06                                                                
 -------------------------------------------------------------------------------
 
 SOLVING FOR HEAD 
 INITIAL HNEW IS AN EXACT SOLUTION.

 NO OUTPUT CONTROL FOR STRESS PERIOD   25   TIME STEP 3124

 -------------------------------------------------------------------------------
                             SWR1 OUTPUT PRINT TIMES
                        STRESS PERIOD   25   TIME STEP  3124
 --------------- --------------- --------------- --------------- ---------------
     0.46128E+06                                                                
 -------------------------------------------------------------------------------
 
 SOLVING FOR HEAD 
 INITIAL HNEW IS AN EXACT SOLUTION.

 NO OUTPUT CONTROL FOR STRESS PERIOD   25   TIME STEP 3125

 -------------------------------------------------------------------------------
                             SWR1 OUTPUT PRINT TIMES
                        STRESS PERIOD   25   TIME STEP  3125
 --------------- --------------- --------------- --------------- ---------------
     0.46140E+06                                                                
 -------------------------------------------------------------------------------
 
 SOLVING FOR HEAD 
 INITIAL HNEW IS AN EXACT SOLUTION.

 NO OUTPUT CONTROL FOR STRESS PERIOD   25   TIME STEP 3126

 -------------------------------------------------------------------------------
                             SWR1 OUTPUT PRINT TIMES
                        STRESS PERIOD   25   TIME STEP  3126
 --------------- --------------- --------------- --------------- ---------------
     0.46152E+06                                                                
 -------------------------------------------------------------------------------
 
 SOLVING FOR HEAD 
 INITIAL HNEW IS AN EXACT SOLUTION.

 NO OUTPUT CONTROL FOR STRESS PERIOD   25   TIME STEP 3127

 -------------------------------------------------------------------------------
                             SWR1 OUTPUT PRINT TIMES
                        STRESS PERIOD   25   TIME STEP  3127
 --------------- --------------- --------------- --------------- ---------------
     0.46164E+06                                                                
 -------------------------------------------------------------------------------
 
 SOLVING FOR HEAD 
 INITIAL HNEW IS AN EXACT SOLUTION.

 NO OUTPUT CONTROL FOR STRESS PERIOD   25   TIME STEP 3128

 -------------------------------------------------------------------------------
                             SWR1 OUTPUT PRINT TIMES
                        STRESS PERIOD   25   TIME STEP  3128
 --------------- --------------- --------------- --------------- ---------------
     0.46176E+06                                                                
 -------------------------------------------------------------------------------
 
 SOLVING FOR HEAD 
 INITIAL HNEW IS AN EXACT SOLUTION.

 NO OUTPUT CONTROL FOR STRESS PERIOD   25   TIME STEP 3129

 -------------------------------------------------------------------------------
                             SWR1 OUTPUT PRINT TIMES
                        STRESS PERIOD   25   TIME STEP  3129
 --------------- --------------- --------------- --------------- ---------------
     0.46188E+06                                                                
 -------------------------------------------------------------------------------
 
 SOLVING FOR HEAD 
 INITIAL HNEW IS AN EXACT SOLUTION.

 NO OUTPUT CONTROL FOR STRESS PERIOD   25   TIME STEP 3130

 -------------------------------------------------------------------------------
                             SWR1 OUTPUT PRINT TIMES
                        STRESS PERIOD   25   TIME STEP  3130
 --------------- --------------- --------------- --------------- ---------------
     0.46200E+06                                                                
 -------------------------------------------------------------------------------
 
 SOLVING FOR HEAD 
 INITIAL HNEW IS AN EXACT SOLUTION.

 NO OUTPUT CONTROL FOR STRESS PERIOD   25   TIME STEP 3131

 -------------------------------------------------------------------------------
                             SWR1 OUTPUT PRINT TIMES
                        STRESS PERIOD   25   TIME STEP  3131
 --------------- --------------- --------------- --------------- ---------------
     0.46212E+06                                                                
 -------------------------------------------------------------------------------
 
 SOLVING FOR HEAD 
 INITIAL HNEW IS AN EXACT SOLUTION.

 NO OUTPUT CONTROL FOR STRESS PERIOD   25   TIME STEP 3132

 -------------------------------------------------------------------------------
                             SWR1 OUTPUT PRINT TIMES
                        STRESS PERIOD   25   TIME STEP  3132
 --------------- --------------- --------------- --------------- ---------------
     0.46224E+06                                                                
 -------------------------------------------------------------------------------
 
 SOLVING FOR HEAD 
 INITIAL HNEW IS AN EXACT SOLUTION.

 NO OUTPUT CONTROL FOR STRESS PERIOD   25   TIME STEP 3133

 -------------------------------------------------------------------------------
                             SWR1 OUTPUT PRINT TIMES
                        STRESS PERIOD   25   TIME STEP  3133
 --------------- --------------- --------------- --------------- ---------------
     0.46236E+06                                                                
 -------------------------------------------------------------------------------
 
 SOLVING FOR HEAD 
 INITIAL HNEW IS AN EXACT SOLUTION.

 NO OUTPUT CONTROL FOR STRESS PERIOD   25   TIME STEP 3134

 -------------------------------------------------------------------------------
                             SWR1 OUTPUT PRINT TIMES
                        STRESS PERIOD   25   TIME STEP  3134
 --------------- --------------- --------------- --------------- ---------------
     0.46248E+06                                                                
 -------------------------------------------------------------------------------
 
 SOLVING FOR HEAD 
 INITIAL HNEW IS AN EXACT SOLUTION.

 NO OUTPUT CONTROL FOR STRESS PERIOD   25   TIME STEP 3135

 -------------------------------------------------------------------------------
                             SWR1 OUTPUT PRINT TIMES
                        STRESS PERIOD   25   TIME STEP  3135
 --------------- --------------- --------------- --------------- ---------------
     0.46260E+06                                                                
 -------------------------------------------------------------------------------
 
 SOLVING FOR HEAD 
 INITIAL HNEW IS AN EXACT SOLUTION.

 NO OUTPUT CONTROL FOR STRESS PERIOD   25   TIME STEP 3136

 -------------------------------------------------------------------------------
                             SWR1 OUTPUT PRINT TIMES
                        STRESS PERIOD   25   TIME STEP  3136
 --------------- --------------- --------------- --------------- ---------------
     0.46272E+06                                                                
 -------------------------------------------------------------------------------
 
 SOLVING FOR HEAD 
 INITIAL HNEW IS AN EXACT SOLUTION.

 NO OUTPUT CONTROL FOR STRESS PERIOD   25   TIME STEP 3137

 -------------------------------------------------------------------------------
                             SWR1 OUTPUT PRINT TIMES
                        STRESS PERIOD   25   TIME STEP  3137
 --------------- --------------- --------------- --------------- ---------------
     0.46284E+06                                                                
 -------------------------------------------------------------------------------
 
 SOLVING FOR HEAD 
 INITIAL HNEW IS AN EXACT SOLUTION.

 NO OUTPUT CONTROL FOR STRESS PERIOD   25   TIME STEP 3138

 -------------------------------------------------------------------------------
                             SWR1 OUTPUT PRINT TIMES
                        STRESS PERIOD   25   TIME STEP  3138
 --------------- --------------- --------------- --------------- ---------------
     0.46296E+06                                                                
 -------------------------------------------------------------------------------
 
 SOLVING FOR HEAD 
 INITIAL HNEW IS AN EXACT SOLUTION.

 NO OUTPUT CONTROL FOR STRESS PERIOD   25   TIME STEP 3139

 -------------------------------------------------------------------------------
                             SWR1 OUTPUT PRINT TIMES
                        STRESS PERIOD   25   TIME STEP  3139
 --------------- --------------- --------------- --------------- ---------------
     0.46308E+06                                                                
 -------------------------------------------------------------------------------
 
 SOLVING FOR HEAD 
 INITIAL HNEW IS AN EXACT SOLUTION.

 NO OUTPUT CONTROL FOR STRESS PERIOD   25   TIME STEP 3140

 -------------------------------------------------------------------------------
                             SWR1 OUTPUT PRINT TIMES
                        STRESS PERIOD   25   TIME STEP  3140
 --------------- --------------- --------------- --------------- ---------------
     0.46320E+06                                                                
 -------------------------------------------------------------------------------
 
 SOLVING FOR HEAD 
 INITIAL HNEW IS AN EXACT SOLUTION.

 NO OUTPUT CONTROL FOR STRESS PERIOD   25   TIME STEP 3141

 -------------------------------------------------------------------------------
                             SWR1 OUTPUT PRINT TIMES
                        STRESS PERIOD   25   TIME STEP  3141
 --------------- --------------- --------------- --------------- ---------------
     0.46332E+06                                                                
 -------------------------------------------------------------------------------
 
 SOLVING FOR HEAD 
 INITIAL HNEW IS AN EXACT SOLUTION.

 NO OUTPUT CONTROL FOR STRESS PERIOD   25   TIME STEP 3142

 -------------------------------------------------------------------------------
                             SWR1 OUTPUT PRINT TIMES
                        STRESS PERIOD   25   TIME STEP  3142
 --------------- --------------- --------------- --------------- ---------------
     0.46344E+06                                                                
 -------------------------------------------------------------------------------
 
 SOLVING FOR HEAD 
 INITIAL HNEW IS AN EXACT SOLUTION.

 NO OUTPUT CONTROL FOR STRESS PERIOD   25   TIME STEP 3143

 -------------------------------------------------------------------------------
                             SWR1 OUTPUT PRINT TIMES
                        STRESS PERIOD   25   TIME STEP  3143
 --------------- --------------- --------------- --------------- ---------------
     0.46356E+06                                                                
 -------------------------------------------------------------------------------
 
 SOLVING FOR HEAD 
 INITIAL HNEW IS AN EXACT SOLUTION.

 NO OUTPUT CONTROL FOR STRESS PERIOD   25   TIME STEP 3144

 -------------------------------------------------------------------------------
                             SWR1 OUTPUT PRINT TIMES
                        STRESS PERIOD   25   TIME STEP  3144
 --------------- --------------- --------------- --------------- ---------------
     0.46368E+06                                                                
 -------------------------------------------------------------------------------
 
 SOLVING FOR HEAD 
 INITIAL HNEW IS AN EXACT SOLUTION.

 NO OUTPUT CONTROL FOR STRESS PERIOD   25   TIME STEP 3145

 -------------------------------------------------------------------------------
                             SWR1 OUTPUT PRINT TIMES
                        STRESS PERIOD   25   TIME STEP  3145
 --------------- --------------- --------------- --------------- ---------------
     0.46380E+06                                                                
 -------------------------------------------------------------------------------
 
 SOLVING FOR HEAD 
 INITIAL HNEW IS AN EXACT SOLUTION.

 NO OUTPUT CONTROL FOR STRESS PERIOD   25   TIME STEP 3146

 -------------------------------------------------------------------------------
                             SWR1 OUTPUT PRINT TIMES
                        STRESS PERIOD   25   TIME STEP  3146
 --------------- --------------- --------------- --------------- ---------------
     0.46392E+06                                                                
 -------------------------------------------------------------------------------
 
 SOLVING FOR HEAD 
 INITIAL HNEW IS AN EXACT SOLUTION.

 NO OUTPUT CONTROL FOR STRESS PERIOD   25   TIME STEP 3147

 -------------------------------------------------------------------------------
                             SWR1 OUTPUT PRINT TIMES
                        STRESS PERIOD   25   TIME STEP  3147
 --------------- --------------- --------------- --------------- ---------------
     0.46404E+06                                                                
 -------------------------------------------------------------------------------
 
 SOLVING FOR HEAD 
 INITIAL HNEW IS AN EXACT SOLUTION.

 NO OUTPUT CONTROL FOR STRESS PERIOD   25   TIME STEP 3148

 -------------------------------------------------------------------------------
                             SWR1 OUTPUT PRINT TIMES
                        STRESS PERIOD   25   TIME STEP  3148
 --------------- --------------- --------------- --------------- ---------------
     0.46416E+06                                                                
 -------------------------------------------------------------------------------
 
 SOLVING FOR HEAD 
 INITIAL HNEW IS AN EXACT SOLUTION.

 NO OUTPUT CONTROL FOR STRESS PERIOD   25   TIME STEP 3149

 -------------------------------------------------------------------------------
                             SWR1 OUTPUT PRINT TIMES
                        STRESS PERIOD   25   TIME STEP  3149
 --------------- --------------- --------------- --------------- ---------------
     0.46428E+06                                                                
 -------------------------------------------------------------------------------
 
 SOLVING FOR HEAD 
 INITIAL HNEW IS AN EXACT SOLUTION.

 NO OUTPUT CONTROL FOR STRESS PERIOD   25   TIME STEP 3150

 -------------------------------------------------------------------------------
                             SWR1 OUTPUT PRINT TIMES
                        STRESS PERIOD   25   TIME STEP  3150
 --------------- --------------- --------------- --------------- ---------------
     0.46440E+06                                                                
 -------------------------------------------------------------------------------
 
 SOLVING FOR HEAD 
 INITIAL HNEW IS AN EXACT SOLUTION.

 NO OUTPUT CONTROL FOR STRESS PERIOD   25   TIME STEP 3151

 -------------------------------------------------------------------------------
                             SWR1 OUTPUT PRINT TIMES
                        STRESS PERIOD   25   TIME STEP  3151
 --------------- --------------- --------------- --------------- ---------------
     0.46452E+06                                                                
 -------------------------------------------------------------------------------
 
 SOLVING FOR HEAD 
 INITIAL HNEW IS AN EXACT SOLUTION.

 NO OUTPUT CONTROL FOR STRESS PERIOD   25   TIME STEP 3152

 -------------------------------------------------------------------------------
                             SWR1 OUTPUT PRINT TIMES
                        STRESS PERIOD   25   TIME STEP  3152
 --------------- --------------- --------------- --------------- ---------------
     0.46464E+06                                                                
 -------------------------------------------------------------------------------
 
 SOLVING FOR HEAD 
 INITIAL HNEW IS AN EXACT SOLUTION.

 NO OUTPUT CONTROL FOR STRESS PERIOD   25   TIME STEP 3153

 -------------------------------------------------------------------------------
                             SWR1 OUTPUT PRINT TIMES
                        STRESS PERIOD   25   TIME STEP  3153
 --------------- --------------- --------------- --------------- ---------------
     0.46476E+06                                                                
 -------------------------------------------------------------------------------
 
 SOLVING FOR HEAD 
 INITIAL HNEW IS AN EXACT SOLUTION.

 NO OUTPUT CONTROL FOR STRESS PERIOD   25   TIME STEP 3154

 -------------------------------------------------------------------------------
                             SWR1 OUTPUT PRINT TIMES
                        STRESS PERIOD   25   TIME STEP  3154
 --------------- --------------- --------------- --------------- ---------------
     0.46488E+06                                                                
 -------------------------------------------------------------------------------
 
 SOLVING FOR HEAD 
 INITIAL HNEW IS AN EXACT SOLUTION.

 NO OUTPUT CONTROL FOR STRESS PERIOD   25   TIME STEP 3155

 -------------------------------------------------------------------------------
                             SWR1 OUTPUT PRINT TIMES
                        STRESS PERIOD   25   TIME STEP  3155
 --------------- --------------- --------------- --------------- ---------------
     0.46500E+06                                                                
 -------------------------------------------------------------------------------
 
 SOLVING FOR HEAD 
 INITIAL HNEW IS AN EXACT SOLUTION.

 NO OUTPUT CONTROL FOR STRESS PERIOD   25   TIME STEP 3156

 -------------------------------------------------------------------------------
                             SWR1 OUTPUT PRINT TIMES
                        STRESS PERIOD   25   TIME STEP  3156
 --------------- --------------- --------------- --------------- ---------------
     0.46512E+06                                                                
 -------------------------------------------------------------------------------
 
 SOLVING FOR HEAD 
 INITIAL HNEW IS AN EXACT SOLUTION.

 NO OUTPUT CONTROL FOR STRESS PERIOD   25   TIME STEP 3157

 -------------------------------------------------------------------------------
                             SWR1 OUTPUT PRINT TIMES
                        STRESS PERIOD   25   TIME STEP  3157
 --------------- --------------- --------------- --------------- ---------------
     0.46524E+06                                                                
 -------------------------------------------------------------------------------
 
 SOLVING FOR HEAD 
 INITIAL HNEW IS AN EXACT SOLUTION.

 NO OUTPUT CONTROL FOR STRESS PERIOD   25   TIME STEP 3158

 -------------------------------------------------------------------------------
                             SWR1 OUTPUT PRINT TIMES
                        STRESS PERIOD   25   TIME STEP  3158
 --------------- --------------- --------------- --------------- ---------------
     0.46536E+06                                                                
 -------------------------------------------------------------------------------
 
 SOLVING FOR HEAD 
 INITIAL HNEW IS AN EXACT SOLUTION.

 NO OUTPUT CONTROL FOR STRESS PERIOD   25   TIME STEP 3159

 -------------------------------------------------------------------------------
                             SWR1 OUTPUT PRINT TIMES
                        STRESS PERIOD   25   TIME STEP  3159
 --------------- --------------- --------------- --------------- ---------------
     0.46548E+06                                                                
 -------------------------------------------------------------------------------
 
 SOLVING FOR HEAD 
 INITIAL HNEW IS AN EXACT SOLUTION.

 NO OUTPUT CONTROL FOR STRESS PERIOD   25   TIME STEP 3160

 -------------------------------------------------------------------------------
                             SWR1 OUTPUT PRINT TIMES
                        STRESS PERIOD   25   TIME STEP  3160
 --------------- --------------- --------------- --------------- ---------------
     0.46560E+06                                                                
 -------------------------------------------------------------------------------
 
 SOLVING FOR HEAD 
 INITIAL HNEW IS AN EXACT SOLUTION.

 NO OUTPUT CONTROL FOR STRESS PERIOD   25   TIME STEP 3161

 -------------------------------------------------------------------------------
                             SWR1 OUTPUT PRINT TIMES
                        STRESS PERIOD   25   TIME STEP  3161
 --------------- --------------- --------------- --------------- ---------------
     0.46572E+06                                                                
 -------------------------------------------------------------------------------
 
 SOLVING FOR HEAD 
 INITIAL HNEW IS AN EXACT SOLUTION.

 NO OUTPUT CONTROL FOR STRESS PERIOD   25   TIME STEP 3162

 -------------------------------------------------------------------------------
                             SWR1 OUTPUT PRINT TIMES
                        STRESS PERIOD   25   TIME STEP  3162
 --------------- --------------- --------------- --------------- ---------------
     0.46584E+06                                                                
 -------------------------------------------------------------------------------
 
 SOLVING FOR HEAD 
 INITIAL HNEW IS AN EXACT SOLUTION.

 NO OUTPUT CONTROL FOR STRESS PERIOD   25   TIME STEP 3163

 -------------------------------------------------------------------------------
                             SWR1 OUTPUT PRINT TIMES
                        STRESS PERIOD   25   TIME STEP  3163
 --------------- --------------- --------------- --------------- ---------------
     0.46596E+06                                                                
 -------------------------------------------------------------------------------
 
 SOLVING FOR HEAD 
 INITIAL HNEW IS AN EXACT SOLUTION.

 NO OUTPUT CONTROL FOR STRESS PERIOD   25   TIME STEP 3164

 -------------------------------------------------------------------------------
                             SWR1 OUTPUT PRINT TIMES
                        STRESS PERIOD   25   TIME STEP  3164
 --------------- --------------- --------------- --------------- ---------------
     0.46608E+06                                                                
 -------------------------------------------------------------------------------
 
 SOLVING FOR HEAD 
 INITIAL HNEW IS AN EXACT SOLUTION.

 NO OUTPUT CONTROL FOR STRESS PERIOD   25   TIME STEP 3165

 -------------------------------------------------------------------------------
                             SWR1 OUTPUT PRINT TIMES
                        STRESS PERIOD   25   TIME STEP  3165
 --------------- --------------- --------------- --------------- ---------------
     0.46620E+06                                                                
 -------------------------------------------------------------------------------
 
 SOLVING FOR HEAD 
 INITIAL HNEW IS AN EXACT SOLUTION.

 NO OUTPUT CONTROL FOR STRESS PERIOD   25   TIME STEP 3166

 -------------------------------------------------------------------------------
                             SWR1 OUTPUT PRINT TIMES
                        STRESS PERIOD   25   TIME STEP  3166
 --------------- --------------- --------------- --------------- ---------------
     0.46632E+06                                                                
 -------------------------------------------------------------------------------
 
 SOLVING FOR HEAD 
 INITIAL HNEW IS AN EXACT SOLUTION.

 NO OUTPUT CONTROL FOR STRESS PERIOD   25   TIME STEP 3167

 -------------------------------------------------------------------------------
                             SWR1 OUTPUT PRINT TIMES
                        STRESS PERIOD   25   TIME STEP  3167
 --------------- --------------- --------------- --------------- ---------------
     0.46644E+06                                                                
 -------------------------------------------------------------------------------
 
 SOLVING FOR HEAD 
 INITIAL HNEW IS AN EXACT SOLUTION.

 NO OUTPUT CONTROL FOR STRESS PERIOD   25   TIME STEP 3168

 -------------------------------------------------------------------------------
                             SWR1 OUTPUT PRINT TIMES
                        STRESS PERIOD   25   TIME STEP  3168
 --------------- --------------- --------------- --------------- ---------------
     0.46656E+06                                                                
 -------------------------------------------------------------------------------
 
 SOLVING FOR HEAD 
 INITIAL HNEW IS AN EXACT SOLUTION.

 NO OUTPUT CONTROL FOR STRESS PERIOD   25   TIME STEP 3169

 -------------------------------------------------------------------------------
                             SWR1 OUTPUT PRINT TIMES
                        STRESS PERIOD   25   TIME STEP  3169
 --------------- --------------- --------------- --------------- ---------------
     0.46668E+06                                                                
 -------------------------------------------------------------------------------
 
 SOLVING FOR HEAD 
 INITIAL HNEW IS AN EXACT SOLUTION.

 NO OUTPUT CONTROL FOR STRESS PERIOD   25   TIME STEP 3170

 -------------------------------------------------------------------------------
                             SWR1 OUTPUT PRINT TIMES
                        STRESS PERIOD   25   TIME STEP  3170
 --------------- --------------- --------------- --------------- ---------------
     0.46680E+06                                                                
 -------------------------------------------------------------------------------
 
 SOLVING FOR HEAD 
 INITIAL HNEW IS AN EXACT SOLUTION.

 NO OUTPUT CONTROL FOR STRESS PERIOD   25   TIME STEP 3171

 -------------------------------------------------------------------------------
                             SWR1 OUTPUT PRINT TIMES
                        STRESS PERIOD   25   TIME STEP  3171
 --------------- --------------- --------------- --------------- ---------------
     0.46692E+06                                                                
 -------------------------------------------------------------------------------
 
 SOLVING FOR HEAD 
 INITIAL HNEW IS AN EXACT SOLUTION.

 NO OUTPUT CONTROL FOR STRESS PERIOD   25   TIME STEP 3172

 -------------------------------------------------------------------------------
                             SWR1 OUTPUT PRINT TIMES
                        STRESS PERIOD   25   TIME STEP  3172
 --------------- --------------- --------------- --------------- ---------------
     0.46704E+06                                                                
 -------------------------------------------------------------------------------
 
 SOLVING FOR HEAD 
 INITIAL HNEW IS AN EXACT SOLUTION.

 NO OUTPUT CONTROL FOR STRESS PERIOD   25   TIME STEP 3173

 -------------------------------------------------------------------------------
                             SWR1 OUTPUT PRINT TIMES
                        STRESS PERIOD   25   TIME STEP  3173
 --------------- --------------- --------------- --------------- ---------------
     0.46716E+06                                                                
 -------------------------------------------------------------------------------
 
 SOLVING FOR HEAD 
 INITIAL HNEW IS AN EXACT SOLUTION.

 NO OUTPUT CONTROL FOR STRESS PERIOD   25   TIME STEP 3174

 -------------------------------------------------------------------------------
                             SWR1 OUTPUT PRINT TIMES
                        STRESS PERIOD   25   TIME STEP  3174
 --------------- --------------- --------------- --------------- ---------------
     0.46728E+06                                                                
 -------------------------------------------------------------------------------
 
 SOLVING FOR HEAD 
 INITIAL HNEW IS AN EXACT SOLUTION.

 NO OUTPUT CONTROL FOR STRESS PERIOD   25   TIME STEP 3175

 -------------------------------------------------------------------------------
                             SWR1 OUTPUT PRINT TIMES
                        STRESS PERIOD   25   TIME STEP  3175
 --------------- --------------- --------------- --------------- ---------------
     0.46740E+06                                                                
 -------------------------------------------------------------------------------
 
 SOLVING FOR HEAD 
 INITIAL HNEW IS AN EXACT SOLUTION.

 NO OUTPUT CONTROL FOR STRESS PERIOD   25   TIME STEP 3176

 -------------------------------------------------------------------------------
                             SWR1 OUTPUT PRINT TIMES
                        STRESS PERIOD   25   TIME STEP  3176
 --------------- --------------- --------------- --------------- ---------------
     0.46752E+06                                                                
 -------------------------------------------------------------------------------
 
 SOLVING FOR HEAD 
 INITIAL HNEW IS AN EXACT SOLUTION.

 NO OUTPUT CONTROL FOR STRESS PERIOD   25   TIME STEP 3177

 -------------------------------------------------------------------------------
                             SWR1 OUTPUT PRINT TIMES
                        STRESS PERIOD   25   TIME STEP  3177
 --------------- --------------- --------------- --------------- ---------------
     0.46764E+06                                                                
 -------------------------------------------------------------------------------
 
 SOLVING FOR HEAD 
 INITIAL HNEW IS AN EXACT SOLUTION.

 NO OUTPUT CONTROL FOR STRESS PERIOD   25   TIME STEP 3178

 -------------------------------------------------------------------------------
                             SWR1 OUTPUT PRINT TIMES
                        STRESS PERIOD   25   TIME STEP  3178
 --------------- --------------- --------------- --------------- ---------------
     0.46776E+06                                                                
 -------------------------------------------------------------------------------
 
 SOLVING FOR HEAD 
 INITIAL HNEW IS AN EXACT SOLUTION.

 NO OUTPUT CONTROL FOR STRESS PERIOD   25   TIME STEP 3179

 -------------------------------------------------------------------------------
                             SWR1 OUTPUT PRINT TIMES
                        STRESS PERIOD   25   TIME STEP  3179
 --------------- --------------- --------------- --------------- ---------------
     0.46788E+06                                                                
 -------------------------------------------------------------------------------
 
 SOLVING FOR HEAD 
 INITIAL HNEW IS AN EXACT SOLUTION.

 NO OUTPUT CONTROL FOR STRESS PERIOD   25   TIME STEP 3180

 -------------------------------------------------------------------------------
                             SWR1 OUTPUT PRINT TIMES
                        STRESS PERIOD   25   TIME STEP  3180
 --------------- --------------- --------------- --------------- ---------------
     0.46800E+06                                                                
 -------------------------------------------------------------------------------
 
 SOLVING FOR HEAD 
 INITIAL HNEW IS AN EXACT SOLUTION.

 NO OUTPUT CONTROL FOR STRESS PERIOD   25   TIME STEP 3181

 -------------------------------------------------------------------------------
                             SWR1 OUTPUT PRINT TIMES
                        STRESS PERIOD   25   TIME STEP  3181
 --------------- --------------- --------------- --------------- ---------------
     0.46812E+06                                                                
 -------------------------------------------------------------------------------
 
 SOLVING FOR HEAD 
 INITIAL HNEW IS AN EXACT SOLUTION.

 NO OUTPUT CONTROL FOR STRESS PERIOD   25   TIME STEP 3182

 -------------------------------------------------------------------------------
                             SWR1 OUTPUT PRINT TIMES
                        STRESS PERIOD   25   TIME STEP  3182
 --------------- --------------- --------------- --------------- ---------------
     0.46824E+06                                                                
 -------------------------------------------------------------------------------
 
 SOLVING FOR HEAD 
 INITIAL HNEW IS AN EXACT SOLUTION.

 NO OUTPUT CONTROL FOR STRESS PERIOD   25   TIME STEP 3183

 -------------------------------------------------------------------------------
                             SWR1 OUTPUT PRINT TIMES
                        STRESS PERIOD   25   TIME STEP  3183
 --------------- --------------- --------------- --------------- ---------------
     0.46836E+06                                                                
 -------------------------------------------------------------------------------
 
 SOLVING FOR HEAD 
 INITIAL HNEW IS AN EXACT SOLUTION.

 NO OUTPUT CONTROL FOR STRESS PERIOD   25   TIME STEP 3184

 -------------------------------------------------------------------------------
                             SWR1 OUTPUT PRINT TIMES
                        STRESS PERIOD   25   TIME STEP  3184
 --------------- --------------- --------------- --------------- ---------------
     0.46848E+06                                                                
 -------------------------------------------------------------------------------
 
 SOLVING FOR HEAD 
 INITIAL HNEW IS AN EXACT SOLUTION.

 NO OUTPUT CONTROL FOR STRESS PERIOD   25   TIME STEP 3185

 -------------------------------------------------------------------------------
                             SWR1 OUTPUT PRINT TIMES
                        STRESS PERIOD   25   TIME STEP  3185
 --------------- --------------- --------------- --------------- ---------------
     0.46860E+06                                                                
 -------------------------------------------------------------------------------
 
 SOLVING FOR HEAD 
 INITIAL HNEW IS AN EXACT SOLUTION.

 NO OUTPUT CONTROL FOR STRESS PERIOD   25   TIME STEP 3186

 -------------------------------------------------------------------------------
                             SWR1 OUTPUT PRINT TIMES
                        STRESS PERIOD   25   TIME STEP  3186
 --------------- --------------- --------------- --------------- ---------------
     0.46872E+06                                                                
 -------------------------------------------------------------------------------
 
 SOLVING FOR HEAD 
 INITIAL HNEW IS AN EXACT SOLUTION.

 NO OUTPUT CONTROL FOR STRESS PERIOD   25   TIME STEP 3187

 -------------------------------------------------------------------------------
                             SWR1 OUTPUT PRINT TIMES
                        STRESS PERIOD   25   TIME STEP  3187
 --------------- --------------- --------------- --------------- ---------------
     0.46884E+06                                                                
 -------------------------------------------------------------------------------
 
 SOLVING FOR HEAD 
 INITIAL HNEW IS AN EXACT SOLUTION.

 NO OUTPUT CONTROL FOR STRESS PERIOD   25   TIME STEP 3188

 -------------------------------------------------------------------------------
                             SWR1 OUTPUT PRINT TIMES
                        STRESS PERIOD   25   TIME STEP  3188
 --------------- --------------- --------------- --------------- ---------------
     0.46896E+06                                                                
 -------------------------------------------------------------------------------
 
 SOLVING FOR HEAD 
 INITIAL HNEW IS AN EXACT SOLUTION.

 NO OUTPUT CONTROL FOR STRESS PERIOD   25   TIME STEP 3189

 -------------------------------------------------------------------------------
                             SWR1 OUTPUT PRINT TIMES
                        STRESS PERIOD   25   TIME STEP  3189
 --------------- --------------- --------------- --------------- ---------------
     0.46908E+06                                                                
 -------------------------------------------------------------------------------
 
 SOLVING FOR HEAD 
 INITIAL HNEW IS AN EXACT SOLUTION.

 NO OUTPUT CONTROL FOR STRESS PERIOD   25   TIME STEP 3190

 -------------------------------------------------------------------------------
                             SWR1 OUTPUT PRINT TIMES
                        STRESS PERIOD   25   TIME STEP  3190
 --------------- --------------- --------------- --------------- ---------------
     0.46920E+06                                                                
 -------------------------------------------------------------------------------
 
 SOLVING FOR HEAD 
 INITIAL HNEW IS AN EXACT SOLUTION.

 NO OUTPUT CONTROL FOR STRESS PERIOD   25   TIME STEP 3191

 -------------------------------------------------------------------------------
                             SWR1 OUTPUT PRINT TIMES
                        STRESS PERIOD   25   TIME STEP  3191
 --------------- --------------- --------------- --------------- ---------------
     0.46932E+06                                                                
 -------------------------------------------------------------------------------
 
 SOLVING FOR HEAD 
 INITIAL HNEW IS AN EXACT SOLUTION.

 NO OUTPUT CONTROL FOR STRESS PERIOD   25   TIME STEP 3192

 -------------------------------------------------------------------------------
                             SWR1 OUTPUT PRINT TIMES
                        STRESS PERIOD   25   TIME STEP  3192
 --------------- --------------- --------------- --------------- ---------------
     0.46944E+06                                                                
 -------------------------------------------------------------------------------
 
 SOLVING FOR HEAD 
 INITIAL HNEW IS AN EXACT SOLUTION.

 NO OUTPUT CONTROL FOR STRESS PERIOD   25   TIME STEP 3193

 -------------------------------------------------------------------------------
                             SWR1 OUTPUT PRINT TIMES
                        STRESS PERIOD   25   TIME STEP  3193
 --------------- --------------- --------------- --------------- ---------------
     0.46956E+06                                                                
 -------------------------------------------------------------------------------
 
 SOLVING FOR HEAD 
 INITIAL HNEW IS AN EXACT SOLUTION.

 NO OUTPUT CONTROL FOR STRESS PERIOD   25   TIME STEP 3194

 -------------------------------------------------------------------------------
                             SWR1 OUTPUT PRINT TIMES
                        STRESS PERIOD   25   TIME STEP  3194
 --------------- --------------- --------------- --------------- ---------------
     0.46968E+06                                                                
 -------------------------------------------------------------------------------
 
 SOLVING FOR HEAD 
 INITIAL HNEW IS AN EXACT SOLUTION.

 NO OUTPUT CONTROL FOR STRESS PERIOD   25   TIME STEP 3195

 -------------------------------------------------------------------------------
                             SWR1 OUTPUT PRINT TIMES
                        STRESS PERIOD   25   TIME STEP  3195
 --------------- --------------- --------------- --------------- ---------------
     0.46980E+06                                                                
 -------------------------------------------------------------------------------
 
 SOLVING FOR HEAD 
 INITIAL HNEW IS AN EXACT SOLUTION.

 NO OUTPUT CONTROL FOR STRESS PERIOD   25   TIME STEP 3196

 -------------------------------------------------------------------------------
                             SWR1 OUTPUT PRINT TIMES
                        STRESS PERIOD   25   TIME STEP  3196
 --------------- --------------- --------------- --------------- ---------------
     0.46992E+06                                                                
 -------------------------------------------------------------------------------
 
 SOLVING FOR HEAD 
 INITIAL HNEW IS AN EXACT SOLUTION.

 NO OUTPUT CONTROL FOR STRESS PERIOD   25   TIME STEP 3197

 -------------------------------------------------------------------------------
                             SWR1 OUTPUT PRINT TIMES
                        STRESS PERIOD   25   TIME STEP  3197
 --------------- --------------- --------------- --------------- ---------------
     0.47004E+06                                                                
 -------------------------------------------------------------------------------
 
 SOLVING FOR HEAD 
 INITIAL HNEW IS AN EXACT SOLUTION.

 NO OUTPUT CONTROL FOR STRESS PERIOD   25   TIME STEP 3198

 -------------------------------------------------------------------------------
                             SWR1 OUTPUT PRINT TIMES
                        STRESS PERIOD   25   TIME STEP  3198
 --------------- --------------- --------------- --------------- ---------------
     0.47016E+06                                                                
 -------------------------------------------------------------------------------
 
 SOLVING FOR HEAD 
 INITIAL HNEW IS AN EXACT SOLUTION.

 NO OUTPUT CONTROL FOR STRESS PERIOD   25   TIME STEP 3199

 -------------------------------------------------------------------------------
                             SWR1 OUTPUT PRINT TIMES
                        STRESS PERIOD   25   TIME STEP  3199
 --------------- --------------- --------------- --------------- ---------------
     0.47028E+06                                                                
 -------------------------------------------------------------------------------
 
 SOLVING FOR HEAD 
 INITIAL HNEW IS AN EXACT SOLUTION.

 NO OUTPUT CONTROL FOR STRESS PERIOD   25   TIME STEP 3200

 -------------------------------------------------------------------------------
                             SWR1 OUTPUT PRINT TIMES
                        STRESS PERIOD   25   TIME STEP  3200
 --------------- --------------- --------------- --------------- ---------------
     0.47040E+06                                                                
 -------------------------------------------------------------------------------
 
 SOLVING FOR HEAD 
 INITIAL HNEW IS AN EXACT SOLUTION.

 NO OUTPUT CONTROL FOR STRESS PERIOD   25   TIME STEP 3201

 -------------------------------------------------------------------------------
                             SWR1 OUTPUT PRINT TIMES
                        STRESS PERIOD   25   TIME STEP  3201
 --------------- --------------- --------------- --------------- ---------------
     0.47052E+06                                                                
 -------------------------------------------------------------------------------
 
 SOLVING FOR HEAD 
 INITIAL HNEW IS AN EXACT SOLUTION.

 NO OUTPUT CONTROL FOR STRESS PERIOD   25   TIME STEP 3202

 -------------------------------------------------------------------------------
                             SWR1 OUTPUT PRINT TIMES
                        STRESS PERIOD   25   TIME STEP  3202
 --------------- --------------- --------------- --------------- ---------------
     0.47064E+06                                                                
 -------------------------------------------------------------------------------
 
 SOLVING FOR HEAD 
 INITIAL HNEW IS AN EXACT SOLUTION.

 NO OUTPUT CONTROL FOR STRESS PERIOD   25   TIME STEP 3203

 -------------------------------------------------------------------------------
                             SWR1 OUTPUT PRINT TIMES
                        STRESS PERIOD   25   TIME STEP  3203
 --------------- --------------- --------------- --------------- ---------------
     0.47076E+06                                                                
 -------------------------------------------------------------------------------
 
 SOLVING FOR HEAD 
 INITIAL HNEW IS AN EXACT SOLUTION.

 NO OUTPUT CONTROL FOR STRESS PERIOD   25   TIME STEP 3204

 -------------------------------------------------------------------------------
                             SWR1 OUTPUT PRINT TIMES
                        STRESS PERIOD   25   TIME STEP  3204
 --------------- --------------- --------------- --------------- ---------------
     0.47088E+06                                                                
 -------------------------------------------------------------------------------
 
 SOLVING FOR HEAD 
 INITIAL HNEW IS AN EXACT SOLUTION.

 NO OUTPUT CONTROL FOR STRESS PERIOD   25   TIME STEP 3205

 -------------------------------------------------------------------------------
                             SWR1 OUTPUT PRINT TIMES
                        STRESS PERIOD   25   TIME STEP  3205
 --------------- --------------- --------------- --------------- ---------------
     0.47100E+06                                                                
 -------------------------------------------------------------------------------
 
 SOLVING FOR HEAD 
 INITIAL HNEW IS AN EXACT SOLUTION.

 NO OUTPUT CONTROL FOR STRESS PERIOD   25   TIME STEP 3206

 -------------------------------------------------------------------------------
                             SWR1 OUTPUT PRINT TIMES
                        STRESS PERIOD   25   TIME STEP  3206
 --------------- --------------- --------------- --------------- ---------------
     0.47112E+06                                                                
 -------------------------------------------------------------------------------
 
 SOLVING FOR HEAD 
 INITIAL HNEW IS AN EXACT SOLUTION.

 NO OUTPUT CONTROL FOR STRESS PERIOD   25   TIME STEP 3207

 -------------------------------------------------------------------------------
                             SWR1 OUTPUT PRINT TIMES
                        STRESS PERIOD   25   TIME STEP  3207
 --------------- --------------- --------------- --------------- ---------------
     0.47124E+06                                                                
 -------------------------------------------------------------------------------
 
 SOLVING FOR HEAD 
 INITIAL HNEW IS AN EXACT SOLUTION.

 NO OUTPUT CONTROL FOR STRESS PERIOD   25   TIME STEP 3208

 -------------------------------------------------------------------------------
                             SWR1 OUTPUT PRINT TIMES
                        STRESS PERIOD   25   TIME STEP  3208
 --------------- --------------- --------------- --------------- ---------------
     0.47136E+06                                                                
 -------------------------------------------------------------------------------
 
 SOLVING FOR HEAD 
 INITIAL HNEW IS AN EXACT SOLUTION.

 NO OUTPUT CONTROL FOR STRESS PERIOD   25   TIME STEP 3209

 -------------------------------------------------------------------------------
                             SWR1 OUTPUT PRINT TIMES
                        STRESS PERIOD   25   TIME STEP  3209
 --------------- --------------- --------------- --------------- ---------------
     0.47148E+06                                                                
 -------------------------------------------------------------------------------
 
 SOLVING FOR HEAD 
 INITIAL HNEW IS AN EXACT SOLUTION.

 NO OUTPUT CONTROL FOR STRESS PERIOD   25   TIME STEP 3210

 -------------------------------------------------------------------------------
                             SWR1 OUTPUT PRINT TIMES
                        STRESS PERIOD   25   TIME STEP  3210
 --------------- --------------- --------------- --------------- ---------------
     0.47160E+06                                                                
 -------------------------------------------------------------------------------
 
 SOLVING FOR HEAD 
 INITIAL HNEW IS AN EXACT SOLUTION.

 NO OUTPUT CONTROL FOR STRESS PERIOD   25   TIME STEP 3211

 -------------------------------------------------------------------------------
                             SWR1 OUTPUT PRINT TIMES
                        STRESS PERIOD   25   TIME STEP  3211
 --------------- --------------- --------------- --------------- ---------------
     0.47172E+06                                                                
 -------------------------------------------------------------------------------
 
 SOLVING FOR HEAD 
 INITIAL HNEW IS AN EXACT SOLUTION.

 NO OUTPUT CONTROL FOR STRESS PERIOD   25   TIME STEP 3212

 -------------------------------------------------------------------------------
                             SWR1 OUTPUT PRINT TIMES
                        STRESS PERIOD   25   TIME STEP  3212
 --------------- --------------- --------------- --------------- ---------------
     0.47184E+06                                                                
 -------------------------------------------------------------------------------
 
 SOLVING FOR HEAD 
 INITIAL HNEW IS AN EXACT SOLUTION.

 NO OUTPUT CONTROL FOR STRESS PERIOD   25   TIME STEP 3213

 -------------------------------------------------------------------------------
                             SWR1 OUTPUT PRINT TIMES
                        STRESS PERIOD   25   TIME STEP  3213
 --------------- --------------- --------------- --------------- ---------------
     0.47196E+06                                                                
 -------------------------------------------------------------------------------
 
 SOLVING FOR HEAD 
 INITIAL HNEW IS AN EXACT SOLUTION.

 NO OUTPUT CONTROL FOR STRESS PERIOD   25   TIME STEP 3214

 -------------------------------------------------------------------------------
                             SWR1 OUTPUT PRINT TIMES
                        STRESS PERIOD   25   TIME STEP  3214
 --------------- --------------- --------------- --------------- ---------------
     0.47208E+06                                                                
 -------------------------------------------------------------------------------
 
 SOLVING FOR HEAD 
 INITIAL HNEW IS AN EXACT SOLUTION.

 NO OUTPUT CONTROL FOR STRESS PERIOD   25   TIME STEP 3215

 -------------------------------------------------------------------------------
                             SWR1 OUTPUT PRINT TIMES
                        STRESS PERIOD   25   TIME STEP  3215
 --------------- --------------- --------------- --------------- ---------------
     0.47220E+06                                                                
 -------------------------------------------------------------------------------
 
 SOLVING FOR HEAD 
 INITIAL HNEW IS AN EXACT SOLUTION.

 NO OUTPUT CONTROL FOR STRESS PERIOD   25   TIME STEP 3216

 -------------------------------------------------------------------------------
                             SWR1 OUTPUT PRINT TIMES
                        STRESS PERIOD   25   TIME STEP  3216
 --------------- --------------- --------------- --------------- ---------------
     0.47232E+06                                                                
 -------------------------------------------------------------------------------
 
 SOLVING FOR HEAD 
 INITIAL HNEW IS AN EXACT SOLUTION.

 NO OUTPUT CONTROL FOR STRESS PERIOD   25   TIME STEP 3217

 -------------------------------------------------------------------------------
                             SWR1 OUTPUT PRINT TIMES
                        STRESS PERIOD   25   TIME STEP  3217
 --------------- --------------- --------------- --------------- ---------------
     0.47244E+06                                                                
 -------------------------------------------------------------------------------
 
 SOLVING FOR HEAD 
 INITIAL HNEW IS AN EXACT SOLUTION.

 NO OUTPUT CONTROL FOR STRESS PERIOD   25   TIME STEP 3218

 -------------------------------------------------------------------------------
                             SWR1 OUTPUT PRINT TIMES
                        STRESS PERIOD   25   TIME STEP  3218
 --------------- --------------- --------------- --------------- ---------------
     0.47256E+06                                                                
 -------------------------------------------------------------------------------
 
 SOLVING FOR HEAD 
 INITIAL HNEW IS AN EXACT SOLUTION.

 NO OUTPUT CONTROL FOR STRESS PERIOD   25   TIME STEP 3219

 -------------------------------------------------------------------------------
                             SWR1 OUTPUT PRINT TIMES
                        STRESS PERIOD   25   TIME STEP  3219
 --------------- --------------- --------------- --------------- ---------------
     0.47268E+06                                                                
 -------------------------------------------------------------------------------
 
 SOLVING FOR HEAD 
 INITIAL HNEW IS AN EXACT SOLUTION.

 NO OUTPUT CONTROL FOR STRESS PERIOD   25   TIME STEP 3220

 -------------------------------------------------------------------------------
                             SWR1 OUTPUT PRINT TIMES
                        STRESS PERIOD   25   TIME STEP  3220
 --------------- --------------- --------------- --------------- ---------------
     0.47280E+06                                                                
 -------------------------------------------------------------------------------
 
 SOLVING FOR HEAD 
 INITIAL HNEW IS AN EXACT SOLUTION.

 NO OUTPUT CONTROL FOR STRESS PERIOD   25   TIME STEP 3221

 -------------------------------------------------------------------------------
                             SWR1 OUTPUT PRINT TIMES
                        STRESS PERIOD   25   TIME STEP  3221
 --------------- --------------- --------------- --------------- ---------------
     0.47292E+06                                                                
 -------------------------------------------------------------------------------
 
 SOLVING FOR HEAD 
 INITIAL HNEW IS AN EXACT SOLUTION.

 NO OUTPUT CONTROL FOR STRESS PERIOD   25   TIME STEP 3222

 -------------------------------------------------------------------------------
                             SWR1 OUTPUT PRINT TIMES
                        STRESS PERIOD   25   TIME STEP  3222
 --------------- --------------- --------------- --------------- ---------------
     0.47304E+06                                                                
 -------------------------------------------------------------------------------
 
 SOLVING FOR HEAD 
 INITIAL HNEW IS AN EXACT SOLUTION.

 NO OUTPUT CONTROL FOR STRESS PERIOD   25   TIME STEP 3223

 -------------------------------------------------------------------------------
                             SWR1 OUTPUT PRINT TIMES
                        STRESS PERIOD   25   TIME STEP  3223
 --------------- --------------- --------------- --------------- ---------------
     0.47316E+06                                                                
 -------------------------------------------------------------------------------
 
 SOLVING FOR HEAD 
 INITIAL HNEW IS AN EXACT SOLUTION.

 NO OUTPUT CONTROL FOR STRESS PERIOD   25   TIME STEP 3224

 -------------------------------------------------------------------------------
                             SWR1 OUTPUT PRINT TIMES
                        STRESS PERIOD   25   TIME STEP  3224
 --------------- --------------- --------------- --------------- ---------------
     0.47328E+06                                                                
 -------------------------------------------------------------------------------
 
 SOLVING FOR HEAD 
 INITIAL HNEW IS AN EXACT SOLUTION.

 NO OUTPUT CONTROL FOR STRESS PERIOD   25   TIME STEP 3225

 -------------------------------------------------------------------------------
                             SWR1 OUTPUT PRINT TIMES
                        STRESS PERIOD   25   TIME STEP  3225
 --------------- --------------- --------------- --------------- ---------------
     0.47340E+06                                                                
 -------------------------------------------------------------------------------
 
 SOLVING FOR HEAD 
 INITIAL HNEW IS AN EXACT SOLUTION.

 NO OUTPUT CONTROL FOR STRESS PERIOD   25   TIME STEP 3226

 -------------------------------------------------------------------------------
                             SWR1 OUTPUT PRINT TIMES
                        STRESS PERIOD   25   TIME STEP  3226
 --------------- --------------- --------------- --------------- ---------------
     0.47352E+06                                                                
 -------------------------------------------------------------------------------
 
 SOLVING FOR HEAD 
 INITIAL HNEW IS AN EXACT SOLUTION.

 NO OUTPUT CONTROL FOR STRESS PERIOD   25   TIME STEP 3227

 -------------------------------------------------------------------------------
                             SWR1 OUTPUT PRINT TIMES
                        STRESS PERIOD   25   TIME STEP  3227
 --------------- --------------- --------------- --------------- ---------------
     0.47364E+06                                                                
 -------------------------------------------------------------------------------
 
 SOLVING FOR HEAD 
 INITIAL HNEW IS AN EXACT SOLUTION.

 NO OUTPUT CONTROL FOR STRESS PERIOD   25   TIME STEP 3228

 -------------------------------------------------------------------------------
                             SWR1 OUTPUT PRINT TIMES
                        STRESS PERIOD   25   TIME STEP  3228
 --------------- --------------- --------------- --------------- ---------------
     0.47376E+06                                                                
 -------------------------------------------------------------------------------
 
 SOLVING FOR HEAD 
 INITIAL HNEW IS AN EXACT SOLUTION.

 NO OUTPUT CONTROL FOR STRESS PERIOD   25   TIME STEP 3229

 -------------------------------------------------------------------------------
                             SWR1 OUTPUT PRINT TIMES
                        STRESS PERIOD   25   TIME STEP  3229
 --------------- --------------- --------------- --------------- ---------------
     0.47388E+06                                                                
 -------------------------------------------------------------------------------
 
 SOLVING FOR HEAD 
 INITIAL HNEW IS AN EXACT SOLUTION.

 NO OUTPUT CONTROL FOR STRESS PERIOD   25   TIME STEP 3230

 -------------------------------------------------------------------------------
                             SWR1 OUTPUT PRINT TIMES
                        STRESS PERIOD   25   TIME STEP  3230
 --------------- --------------- --------------- --------------- ---------------
     0.47400E+06                                                                
 -------------------------------------------------------------------------------
 
 SOLVING FOR HEAD 
 INITIAL HNEW IS AN EXACT SOLUTION.

 NO OUTPUT CONTROL FOR STRESS PERIOD   25   TIME STEP 3231

 -------------------------------------------------------------------------------
                             SWR1 OUTPUT PRINT TIMES
                        STRESS PERIOD   25   TIME STEP  3231
 --------------- --------------- --------------- --------------- ---------------
     0.47412E+06                                                                
 -------------------------------------------------------------------------------
 
 SOLVING FOR HEAD 
 INITIAL HNEW IS AN EXACT SOLUTION.

 NO OUTPUT CONTROL FOR STRESS PERIOD   25   TIME STEP 3232

 -------------------------------------------------------------------------------
                             SWR1 OUTPUT PRINT TIMES
                        STRESS PERIOD   25   TIME STEP  3232
 --------------- --------------- --------------- --------------- ---------------
     0.47424E+06                                                                
 -------------------------------------------------------------------------------
 
 SOLVING FOR HEAD 
 INITIAL HNEW IS AN EXACT SOLUTION.

 NO OUTPUT CONTROL FOR STRESS PERIOD   25   TIME STEP 3233

 -------------------------------------------------------------------------------
                             SWR1 OUTPUT PRINT TIMES
                        STRESS PERIOD   25   TIME STEP  3233
 --------------- --------------- --------------- --------------- ---------------
     0.47436E+06                                                                
 -------------------------------------------------------------------------------
 
 SOLVING FOR HEAD 
 INITIAL HNEW IS AN EXACT SOLUTION.

 NO OUTPUT CONTROL FOR STRESS PERIOD   25   TIME STEP 3234

 -------------------------------------------------------------------------------
                             SWR1 OUTPUT PRINT TIMES
                        STRESS PERIOD   25   TIME STEP  3234
 --------------- --------------- --------------- --------------- ---------------
     0.47448E+06                                                                
 -------------------------------------------------------------------------------
 
 SOLVING FOR HEAD 
 INITIAL HNEW IS AN EXACT SOLUTION.

 NO OUTPUT CONTROL FOR STRESS PERIOD   25   TIME STEP 3235

 -------------------------------------------------------------------------------
                             SWR1 OUTPUT PRINT TIMES
                        STRESS PERIOD   25   TIME STEP  3235
 --------------- --------------- --------------- --------------- ---------------
     0.47460E+06                                                                
 -------------------------------------------------------------------------------
 
 SOLVING FOR HEAD 
 INITIAL HNEW IS AN EXACT SOLUTION.

 NO OUTPUT CONTROL FOR STRESS PERIOD   25   TIME STEP 3236

 -------------------------------------------------------------------------------
                             SWR1 OUTPUT PRINT TIMES
                        STRESS PERIOD   25   TIME STEP  3236
 --------------- --------------- --------------- --------------- ---------------
     0.47472E+06                                                                
 -------------------------------------------------------------------------------
 
 SOLVING FOR HEAD 
 INITIAL HNEW IS AN EXACT SOLUTION.

 NO OUTPUT CONTROL FOR STRESS PERIOD   25   TIME STEP 3237

 -------------------------------------------------------------------------------
                             SWR1 OUTPUT PRINT TIMES
                        STRESS PERIOD   25   TIME STEP  3237
 --------------- --------------- --------------- --------------- ---------------
     0.47484E+06                                                                
 -------------------------------------------------------------------------------
 
 SOLVING FOR HEAD 
 INITIAL HNEW IS AN EXACT SOLUTION.

 NO OUTPUT CONTROL FOR STRESS PERIOD   25   TIME STEP 3238

 -------------------------------------------------------------------------------
                             SWR1 OUTPUT PRINT TIMES
                        STRESS PERIOD   25   TIME STEP  3238
 --------------- --------------- --------------- --------------- ---------------
     0.47496E+06                                                                
 -------------------------------------------------------------------------------
 
 SOLVING FOR HEAD 
 INITIAL HNEW IS AN EXACT SOLUTION.

 NO OUTPUT CONTROL FOR STRESS PERIOD   25   TIME STEP 3239

 -------------------------------------------------------------------------------
                             SWR1 OUTPUT PRINT TIMES
                        STRESS PERIOD   25   TIME STEP  3239
 --------------- --------------- --------------- --------------- ---------------
     0.47508E+06                                                                
 -------------------------------------------------------------------------------
 
 SOLVING FOR HEAD 
 INITIAL HNEW IS AN EXACT SOLUTION.

 NO OUTPUT CONTROL FOR STRESS PERIOD   25   TIME STEP 3240

 -------------------------------------------------------------------------------
                             SWR1 OUTPUT PRINT TIMES
                        STRESS PERIOD   25   TIME STEP  3240
 --------------- --------------- --------------- --------------- ---------------
     0.47520E+06                                                                
 -------------------------------------------------------------------------------
 
 SOLVING FOR HEAD 
 INITIAL HNEW IS AN EXACT SOLUTION.

 NO OUTPUT CONTROL FOR STRESS PERIOD   25   TIME STEP 3241

 -------------------------------------------------------------------------------
                             SWR1 OUTPUT PRINT TIMES
                        STRESS PERIOD   25   TIME STEP  3241
 --------------- --------------- --------------- --------------- ---------------
     0.47532E+06                                                                
 -------------------------------------------------------------------------------
 
 SOLVING FOR HEAD 
 INITIAL HNEW IS AN EXACT SOLUTION.

 NO OUTPUT CONTROL FOR STRESS PERIOD   25   TIME STEP 3242

 -------------------------------------------------------------------------------
                             SWR1 OUTPUT PRINT TIMES
                        STRESS PERIOD   25   TIME STEP  3242
 --------------- --------------- --------------- --------------- ---------------
     0.47544E+06                                                                
 -------------------------------------------------------------------------------
 
 SOLVING FOR HEAD 
 INITIAL HNEW IS AN EXACT SOLUTION.

 NO OUTPUT CONTROL FOR STRESS PERIOD   25   TIME STEP 3243

 -------------------------------------------------------------------------------
                             SWR1 OUTPUT PRINT TIMES
                        STRESS PERIOD   25   TIME STEP  3243
 --------------- --------------- --------------- --------------- ---------------
     0.47556E+06                                                                
 -------------------------------------------------------------------------------
 
 SOLVING FOR HEAD 
 INITIAL HNEW IS AN EXACT SOLUTION.

 NO OUTPUT CONTROL FOR STRESS PERIOD   25   TIME STEP 3244

 -------------------------------------------------------------------------------
                             SWR1 OUTPUT PRINT TIMES
                        STRESS PERIOD   25   TIME STEP  3244
 --------------- --------------- --------------- --------------- ---------------
     0.47568E+06                                                                
 -------------------------------------------------------------------------------
 
 SOLVING FOR HEAD 
 INITIAL HNEW IS AN EXACT SOLUTION.

 NO OUTPUT CONTROL FOR STRESS PERIOD   25   TIME STEP 3245

 -------------------------------------------------------------------------------
                             SWR1 OUTPUT PRINT TIMES
                        STRESS PERIOD   25   TIME STEP  3245
 --------------- --------------- --------------- --------------- ---------------
     0.47580E+06                                                                
 -------------------------------------------------------------------------------
 
 SOLVING FOR HEAD 
 INITIAL HNEW IS AN EXACT SOLUTION.

 NO OUTPUT CONTROL FOR STRESS PERIOD   25   TIME STEP 3246

 -------------------------------------------------------------------------------
                             SWR1 OUTPUT PRINT TIMES
                        STRESS PERIOD   25   TIME STEP  3246
 --------------- --------------- --------------- --------------- ---------------
     0.47592E+06                                                                
 -------------------------------------------------------------------------------
 
 SOLVING FOR HEAD 
 INITIAL HNEW IS AN EXACT SOLUTION.

 NO OUTPUT CONTROL FOR STRESS PERIOD   25   TIME STEP 3247

 -------------------------------------------------------------------------------
                             SWR1 OUTPUT PRINT TIMES
                        STRESS PERIOD   25   TIME STEP  3247
 --------------- --------------- --------------- --------------- ---------------
     0.47604E+06                                                                
 -------------------------------------------------------------------------------
 
 SOLVING FOR HEAD 
 INITIAL HNEW IS AN EXACT SOLUTION.

 NO OUTPUT CONTROL FOR STRESS PERIOD   25   TIME STEP 3248

 -------------------------------------------------------------------------------
                             SWR1 OUTPUT PRINT TIMES
                        STRESS PERIOD   25   TIME STEP  3248
 --------------- --------------- --------------- --------------- ---------------
     0.47616E+06                                                                
 -------------------------------------------------------------------------------
 
 SOLVING FOR HEAD 
 INITIAL HNEW IS AN EXACT SOLUTION.

 NO OUTPUT CONTROL FOR STRESS PERIOD   25   TIME STEP 3249

 -------------------------------------------------------------------------------
                             SWR1 OUTPUT PRINT TIMES
                        STRESS PERIOD   25   TIME STEP  3249
 --------------- --------------- --------------- --------------- ---------------
     0.47628E+06                                                                
 -------------------------------------------------------------------------------
 
 SOLVING FOR HEAD 
 INITIAL HNEW IS AN EXACT SOLUTION.

 NO OUTPUT CONTROL FOR STRESS PERIOD   25   TIME STEP 3250

 -------------------------------------------------------------------------------
                             SWR1 OUTPUT PRINT TIMES
                        STRESS PERIOD   25   TIME STEP  3250
 --------------- --------------- --------------- --------------- ---------------
     0.47640E+06                                                                
 -------------------------------------------------------------------------------
 
 SOLVING FOR HEAD 
 INITIAL HNEW IS AN EXACT SOLUTION.

 NO OUTPUT CONTROL FOR STRESS PERIOD   25   TIME STEP 3251

 -------------------------------------------------------------------------------
                             SWR1 OUTPUT PRINT TIMES
                        STRESS PERIOD   25   TIME STEP  3251
 --------------- --------------- --------------- --------------- ---------------
     0.47652E+06                                                                
 -------------------------------------------------------------------------------
 
 SOLVING FOR HEAD 
 INITIAL HNEW IS AN EXACT SOLUTION.

 NO OUTPUT CONTROL FOR STRESS PERIOD   25   TIME STEP 3252

 -------------------------------------------------------------------------------
                             SWR1 OUTPUT PRINT TIMES
                        STRESS PERIOD   25   TIME STEP  3252
 --------------- --------------- --------------- --------------- ---------------
     0.47664E+06                                                                
 -------------------------------------------------------------------------------
 
 SOLVING FOR HEAD 
 INITIAL HNEW IS AN EXACT SOLUTION.

 NO OUTPUT CONTROL FOR STRESS PERIOD   25   TIME STEP 3253

 -------------------------------------------------------------------------------
                             SWR1 OUTPUT PRINT TIMES
                        STRESS PERIOD   25   TIME STEP  3253
 --------------- --------------- --------------- --------------- ---------------
     0.47676E+06                                                                
 -------------------------------------------------------------------------------
 
 SOLVING FOR HEAD 
 INITIAL HNEW IS AN EXACT SOLUTION.

 NO OUTPUT CONTROL FOR STRESS PERIOD   25   TIME STEP 3254

 -------------------------------------------------------------------------------
                             SWR1 OUTPUT PRINT TIMES
                        STRESS PERIOD   25   TIME STEP  3254
 --------------- --------------- --------------- --------------- ---------------
     0.47688E+06                                                                
 -------------------------------------------------------------------------------
 
 SOLVING FOR HEAD 
 INITIAL HNEW IS AN EXACT SOLUTION.

 NO OUTPUT CONTROL FOR STRESS PERIOD   25   TIME STEP 3255

 -------------------------------------------------------------------------------
                             SWR1 OUTPUT PRINT TIMES
                        STRESS PERIOD   25   TIME STEP  3255
 --------------- --------------- --------------- --------------- ---------------
     0.47700E+06                                                                
 -------------------------------------------------------------------------------
 
 SOLVING FOR HEAD 
 INITIAL HNEW IS AN EXACT SOLUTION.

 NO OUTPUT CONTROL FOR STRESS PERIOD   25   TIME STEP 3256

 -------------------------------------------------------------------------------
                             SWR1 OUTPUT PRINT TIMES
                        STRESS PERIOD   25   TIME STEP  3256
 --------------- --------------- --------------- --------------- ---------------
     0.47712E+06                                                                
 -------------------------------------------------------------------------------
 
 SOLVING FOR HEAD 
 INITIAL HNEW IS AN EXACT SOLUTION.

 NO OUTPUT CONTROL FOR STRESS PERIOD   25   TIME STEP 3257

 -------------------------------------------------------------------------------
                             SWR1 OUTPUT PRINT TIMES
                        STRESS PERIOD   25   TIME STEP  3257
 --------------- --------------- --------------- --------------- ---------------
     0.47724E+06                                                                
 -------------------------------------------------------------------------------
 
 SOLVING FOR HEAD 
 INITIAL HNEW IS AN EXACT SOLUTION.

 NO OUTPUT CONTROL FOR STRESS PERIOD   25   TIME STEP 3258

 -------------------------------------------------------------------------------
                             SWR1 OUTPUT PRINT TIMES
                        STRESS PERIOD   25   TIME STEP  3258
 --------------- --------------- --------------- --------------- ---------------
     0.47736E+06                                                                
 -------------------------------------------------------------------------------
 
 SOLVING FOR HEAD 
 INITIAL HNEW IS AN EXACT SOLUTION.

 NO OUTPUT CONTROL FOR STRESS PERIOD   25   TIME STEP 3259

 -------------------------------------------------------------------------------
                             SWR1 OUTPUT PRINT TIMES
                        STRESS PERIOD   25   TIME STEP  3259
 --------------- --------------- --------------- --------------- ---------------
     0.47748E+06                                                                
 -------------------------------------------------------------------------------
 
 SOLVING FOR HEAD 
 INITIAL HNEW IS AN EXACT SOLUTION.

 NO OUTPUT CONTROL FOR STRESS PERIOD   25   TIME STEP 3260

 -------------------------------------------------------------------------------
                             SWR1 OUTPUT PRINT TIMES
                        STRESS PERIOD   25   TIME STEP  3260
 --------------- --------------- --------------- --------------- ---------------
     0.47760E+06                                                                
 -------------------------------------------------------------------------------
 
 SOLVING FOR HEAD 
 INITIAL HNEW IS AN EXACT SOLUTION.

 NO OUTPUT CONTROL FOR STRESS PERIOD   25   TIME STEP 3261

 -------------------------------------------------------------------------------
                             SWR1 OUTPUT PRINT TIMES
                        STRESS PERIOD   25   TIME STEP  3261
 --------------- --------------- --------------- --------------- ---------------
     0.47772E+06                                                                
 -------------------------------------------------------------------------------
 
 SOLVING FOR HEAD 
 INITIAL HNEW IS AN EXACT SOLUTION.

 NO OUTPUT CONTROL FOR STRESS PERIOD   25   TIME STEP 3262

 -------------------------------------------------------------------------------
                             SWR1 OUTPUT PRINT TIMES
                        STRESS PERIOD   25   TIME STEP  3262
 --------------- --------------- --------------- --------------- ---------------
     0.47784E+06                                                                
 -------------------------------------------------------------------------------
 
 SOLVING FOR HEAD 
 INITIAL HNEW IS AN EXACT SOLUTION.

 NO OUTPUT CONTROL FOR STRESS PERIOD   25   TIME STEP 3263

 -------------------------------------------------------------------------------
                             SWR1 OUTPUT PRINT TIMES
                        STRESS PERIOD   25   TIME STEP  3263
 --------------- --------------- --------------- --------------- ---------------
     0.47796E+06                                                                
 -------------------------------------------------------------------------------
 
 SOLVING FOR HEAD 
 INITIAL HNEW IS AN EXACT SOLUTION.

 NO OUTPUT CONTROL FOR STRESS PERIOD   25   TIME STEP 3264

 -------------------------------------------------------------------------------
                             SWR1 OUTPUT PRINT TIMES
                        STRESS PERIOD   25   TIME STEP  3264
 --------------- --------------- --------------- --------------- ---------------
     0.47808E+06                                                                
 -------------------------------------------------------------------------------
 
 SOLVING FOR HEAD 
 INITIAL HNEW IS AN EXACT SOLUTION.

 NO OUTPUT CONTROL FOR STRESS PERIOD   25   TIME STEP 3265

 -------------------------------------------------------------------------------
                             SWR1 OUTPUT PRINT TIMES
                        STRESS PERIOD   25   TIME STEP  3265
 --------------- --------------- --------------- --------------- ---------------
     0.47820E+06                                                                
 -------------------------------------------------------------------------------
 
 SOLVING FOR HEAD 
 INITIAL HNEW IS AN EXACT SOLUTION.

 NO OUTPUT CONTROL FOR STRESS PERIOD   25   TIME STEP 3266

 -------------------------------------------------------------------------------
                             SWR1 OUTPUT PRINT TIMES
                        STRESS PERIOD   25   TIME STEP  3266
 --------------- --------------- --------------- --------------- ---------------
     0.47832E+06                                                                
 -------------------------------------------------------------------------------
 
 SOLVING FOR HEAD 
 INITIAL HNEW IS AN EXACT SOLUTION.

 NO OUTPUT CONTROL FOR STRESS PERIOD   25   TIME STEP 3267

 -------------------------------------------------------------------------------
                             SWR1 OUTPUT PRINT TIMES
                        STRESS PERIOD   25   TIME STEP  3267
 --------------- --------------- --------------- --------------- ---------------
     0.47844E+06                                                                
 -------------------------------------------------------------------------------
 
 SOLVING FOR HEAD 
 INITIAL HNEW IS AN EXACT SOLUTION.

 NO OUTPUT CONTROL FOR STRESS PERIOD   25   TIME STEP 3268

 -------------------------------------------------------------------------------
                             SWR1 OUTPUT PRINT TIMES
                        STRESS PERIOD   25   TIME STEP  3268
 --------------- --------------- --------------- --------------- ---------------
     0.47856E+06                                                                
 -------------------------------------------------------------------------------
 
 SOLVING FOR HEAD 
 INITIAL HNEW IS AN EXACT SOLUTION.

 NO OUTPUT CONTROL FOR STRESS PERIOD   25   TIME STEP 3269

 -------------------------------------------------------------------------------
                             SWR1 OUTPUT PRINT TIMES
                        STRESS PERIOD   25   TIME STEP  3269
 --------------- --------------- --------------- --------------- ---------------
     0.47868E+06                                                                
 -------------------------------------------------------------------------------
 
 SOLVING FOR HEAD 
 INITIAL HNEW IS AN EXACT SOLUTION.

 NO OUTPUT CONTROL FOR STRESS PERIOD   25   TIME STEP 3270

 -------------------------------------------------------------------------------
                             SWR1 OUTPUT PRINT TIMES
                        STRESS PERIOD   25   TIME STEP  3270
 --------------- --------------- --------------- --------------- ---------------
     0.47880E+06                                                                
 -------------------------------------------------------------------------------
 
 SOLVING FOR HEAD 
 INITIAL HNEW IS AN EXACT SOLUTION.

 NO OUTPUT CONTROL FOR STRESS PERIOD   25   TIME STEP 3271

 -------------------------------------------------------------------------------
                             SWR1 OUTPUT PRINT TIMES
                        STRESS PERIOD   25   TIME STEP  3271
 --------------- --------------- --------------- --------------- ---------------
     0.47892E+06                                                                
 -------------------------------------------------------------------------------
 
 SOLVING FOR HEAD 
 INITIAL HNEW IS AN EXACT SOLUTION.

 NO OUTPUT CONTROL FOR STRESS PERIOD   25   TIME STEP 3272

 -------------------------------------------------------------------------------
                             SWR1 OUTPUT PRINT TIMES
                        STRESS PERIOD   25   TIME STEP  3272
 --------------- --------------- --------------- --------------- ---------------
     0.47904E+06                                                                
 -------------------------------------------------------------------------------
 
 SOLVING FOR HEAD 
 INITIAL HNEW IS AN EXACT SOLUTION.

 NO OUTPUT CONTROL FOR STRESS PERIOD   25   TIME STEP 3273

 -------------------------------------------------------------------------------
                             SWR1 OUTPUT PRINT TIMES
                        STRESS PERIOD   25   TIME STEP  3273
 --------------- --------------- --------------- --------------- ---------------
     0.47916E+06                                                                
 -------------------------------------------------------------------------------
 
 SOLVING FOR HEAD 
 INITIAL HNEW IS AN EXACT SOLUTION.

 NO OUTPUT CONTROL FOR STRESS PERIOD   25   TIME STEP 3274

 -------------------------------------------------------------------------------
                             SWR1 OUTPUT PRINT TIMES
                        STRESS PERIOD   25   TIME STEP  3274
 --------------- --------------- --------------- --------------- ---------------
     0.47928E+06                                                                
 -------------------------------------------------------------------------------
 
 SOLVING FOR HEAD 
 INITIAL HNEW IS AN EXACT SOLUTION.

 NO OUTPUT CONTROL FOR STRESS PERIOD   25   TIME STEP 3275

 -------------------------------------------------------------------------------
                             SWR1 OUTPUT PRINT TIMES
                        STRESS PERIOD   25   TIME STEP  3275
 --------------- --------------- --------------- --------------- ---------------
     0.47940E+06                                                                
 -------------------------------------------------------------------------------
 
 SOLVING FOR HEAD 
 INITIAL HNEW IS AN EXACT SOLUTION.

 NO OUTPUT CONTROL FOR STRESS PERIOD   25   TIME STEP 3276

 -------------------------------------------------------------------------------
                             SWR1 OUTPUT PRINT TIMES
                        STRESS PERIOD   25   TIME STEP  3276
 --------------- --------------- --------------- --------------- ---------------
     0.47952E+06                                                                
 -------------------------------------------------------------------------------
 
 SOLVING FOR HEAD 
 INITIAL HNEW IS AN EXACT SOLUTION.

 NO OUTPUT CONTROL FOR STRESS PERIOD   25   TIME STEP 3277

 -------------------------------------------------------------------------------
                             SWR1 OUTPUT PRINT TIMES
                        STRESS PERIOD   25   TIME STEP  3277
 --------------- --------------- --------------- --------------- ---------------
     0.47964E+06                                                                
 -------------------------------------------------------------------------------
 
 SOLVING FOR HEAD 
 INITIAL HNEW IS AN EXACT SOLUTION.

 NO OUTPUT CONTROL FOR STRESS PERIOD   25   TIME STEP 3278

 -------------------------------------------------------------------------------
                             SWR1 OUTPUT PRINT TIMES
                        STRESS PERIOD   25   TIME STEP  3278
 --------------- --------------- --------------- --------------- ---------------
     0.47976E+06                                                                
 -------------------------------------------------------------------------------
 
 SOLVING FOR HEAD 
 INITIAL HNEW IS AN EXACT SOLUTION.

 NO OUTPUT CONTROL FOR STRESS PERIOD   25   TIME STEP 3279

 -------------------------------------------------------------------------------
                             SWR1 OUTPUT PRINT TIMES
                        STRESS PERIOD   25   TIME STEP  3279
 --------------- --------------- --------------- --------------- ---------------
     0.47988E+06                                                                
 -------------------------------------------------------------------------------
 
 SOLVING FOR HEAD 
 INITIAL HNEW IS AN EXACT SOLUTION.

 NO OUTPUT CONTROL FOR STRESS PERIOD   25   TIME STEP 3280

 -------------------------------------------------------------------------------
                             SWR1 OUTPUT PRINT TIMES
                        STRESS PERIOD   25   TIME STEP  3280
 --------------- --------------- --------------- --------------- ---------------
     0.48000E+06                                                                
 -------------------------------------------------------------------------------
 
 SOLVING FOR HEAD 
 INITIAL HNEW IS AN EXACT SOLUTION.

 NO OUTPUT CONTROL FOR STRESS PERIOD   25   TIME STEP 3281

 -------------------------------------------------------------------------------
                             SWR1 OUTPUT PRINT TIMES
                        STRESS PERIOD   25   TIME STEP  3281
 --------------- --------------- --------------- --------------- ---------------
     0.48012E+06                                                                
 -------------------------------------------------------------------------------
 
 SOLVING FOR HEAD 
 INITIAL HNEW IS AN EXACT SOLUTION.

 NO OUTPUT CONTROL FOR STRESS PERIOD   25   TIME STEP 3282

 -------------------------------------------------------------------------------
                             SWR1 OUTPUT PRINT TIMES
                        STRESS PERIOD   25   TIME STEP  3282
 --------------- --------------- --------------- --------------- ---------------
     0.48024E+06                                                                
 -------------------------------------------------------------------------------
 
 SOLVING FOR HEAD 
 INITIAL HNEW IS AN EXACT SOLUTION.

 NO OUTPUT CONTROL FOR STRESS PERIOD   25   TIME STEP 3283

 -------------------------------------------------------------------------------
                             SWR1 OUTPUT PRINT TIMES
                        STRESS PERIOD   25   TIME STEP  3283
 --------------- --------------- --------------- --------------- ---------------
     0.48036E+06                                                                
 -------------------------------------------------------------------------------
 
 SOLVING FOR HEAD 
 INITIAL HNEW IS AN EXACT SOLUTION.

 NO OUTPUT CONTROL FOR STRESS PERIOD   25   TIME STEP 3284

 -------------------------------------------------------------------------------
                             SWR1 OUTPUT PRINT TIMES
                        STRESS PERIOD   25   TIME STEP  3284
 --------------- --------------- --------------- --------------- ---------------
     0.48048E+06                                                                
 -------------------------------------------------------------------------------
 
 SOLVING FOR HEAD 
 INITIAL HNEW IS AN EXACT SOLUTION.

 NO OUTPUT CONTROL FOR STRESS PERIOD   25   TIME STEP 3285

 -------------------------------------------------------------------------------
                             SWR1 OUTPUT PRINT TIMES
                        STRESS PERIOD   25   TIME STEP  3285
 --------------- --------------- --------------- --------------- ---------------
     0.48060E+06                                                                
 -------------------------------------------------------------------------------
 
 SOLVING FOR HEAD 
 INITIAL HNEW IS AN EXACT SOLUTION.

 NO OUTPUT CONTROL FOR STRESS PERIOD   25   TIME STEP 3286

 -------------------------------------------------------------------------------
                             SWR1 OUTPUT PRINT TIMES
                        STRESS PERIOD   25   TIME STEP  3286
 --------------- --------------- --------------- --------------- ---------------
     0.48072E+06                                                                
 -------------------------------------------------------------------------------
 
 SOLVING FOR HEAD 
 INITIAL HNEW IS AN EXACT SOLUTION.

 NO OUTPUT CONTROL FOR STRESS PERIOD   25   TIME STEP 3287

 -------------------------------------------------------------------------------
                             SWR1 OUTPUT PRINT TIMES
                        STRESS PERIOD   25   TIME STEP  3287
 --------------- --------------- --------------- --------------- ---------------
     0.48084E+06                                                                
 -------------------------------------------------------------------------------
 
 SOLVING FOR HEAD 
 INITIAL HNEW IS AN EXACT SOLUTION.

 NO OUTPUT CONTROL FOR STRESS PERIOD   25   TIME STEP 3288

 -------------------------------------------------------------------------------
                             SWR1 OUTPUT PRINT TIMES
                        STRESS PERIOD   25   TIME STEP  3288
 --------------- --------------- --------------- --------------- ---------------
     0.48096E+06                                                                
 -------------------------------------------------------------------------------
 
 SOLVING FOR HEAD 
 INITIAL HNEW IS AN EXACT SOLUTION.

 NO OUTPUT CONTROL FOR STRESS PERIOD   25   TIME STEP 3289

 -------------------------------------------------------------------------------
                             SWR1 OUTPUT PRINT TIMES
                        STRESS PERIOD   25   TIME STEP  3289
 --------------- --------------- --------------- --------------- ---------------
     0.48108E+06                                                                
 -------------------------------------------------------------------------------
 
 SOLVING FOR HEAD 
 INITIAL HNEW IS AN EXACT SOLUTION.

 NO OUTPUT CONTROL FOR STRESS PERIOD   25   TIME STEP 3290

 -------------------------------------------------------------------------------
                             SWR1 OUTPUT PRINT TIMES
                        STRESS PERIOD   25   TIME STEP  3290
 --------------- --------------- --------------- --------------- ---------------
     0.48120E+06                                                                
 -------------------------------------------------------------------------------
 
 SOLVING FOR HEAD 
 INITIAL HNEW IS AN EXACT SOLUTION.

 NO OUTPUT CONTROL FOR STRESS PERIOD   25   TIME STEP 3291

 -------------------------------------------------------------------------------
                             SWR1 OUTPUT PRINT TIMES
                        STRESS PERIOD   25   TIME STEP  3291
 --------------- --------------- --------------- --------------- ---------------
     0.48132E+06                                                                
 -------------------------------------------------------------------------------
 
 SOLVING FOR HEAD 
 INITIAL HNEW IS AN EXACT SOLUTION.

 NO OUTPUT CONTROL FOR STRESS PERIOD   25   TIME STEP 3292

 -------------------------------------------------------------------------------
                             SWR1 OUTPUT PRINT TIMES
                        STRESS PERIOD   25   TIME STEP  3292
 --------------- --------------- --------------- --------------- ---------------
     0.48144E+06                                                                
 -------------------------------------------------------------------------------
 
 SOLVING FOR HEAD 
 INITIAL HNEW IS AN EXACT SOLUTION.

 NO OUTPUT CONTROL FOR STRESS PERIOD   25   TIME STEP 3293

 -------------------------------------------------------------------------------
                             SWR1 OUTPUT PRINT TIMES
                        STRESS PERIOD   25   TIME STEP  3293
 --------------- --------------- --------------- --------------- ---------------
     0.48156E+06                                                                
 -------------------------------------------------------------------------------
 
 SOLVING FOR HEAD 
 INITIAL HNEW IS AN EXACT SOLUTION.

 NO OUTPUT CONTROL FOR STRESS PERIOD   25   TIME STEP 3294

 -------------------------------------------------------------------------------
                             SWR1 OUTPUT PRINT TIMES
                        STRESS PERIOD   25   TIME STEP  3294
 --------------- --------------- --------------- --------------- ---------------
     0.48168E+06                                                                
 -------------------------------------------------------------------------------
 
 SOLVING FOR HEAD 
 INITIAL HNEW IS AN EXACT SOLUTION.

 NO OUTPUT CONTROL FOR STRESS PERIOD   25   TIME STEP 3295

 -------------------------------------------------------------------------------
                             SWR1 OUTPUT PRINT TIMES
                        STRESS PERIOD   25   TIME STEP  3295
 --------------- --------------- --------------- --------------- ---------------
     0.48180E+06                                                                
 -------------------------------------------------------------------------------
 
 SOLVING FOR HEAD 
 INITIAL HNEW IS AN EXACT SOLUTION.

 NO OUTPUT CONTROL FOR STRESS PERIOD   25   TIME STEP 3296

 -------------------------------------------------------------------------------
                             SWR1 OUTPUT PRINT TIMES
                        STRESS PERIOD   25   TIME STEP  3296
 --------------- --------------- --------------- --------------- ---------------
     0.48192E+06                                                                
 -------------------------------------------------------------------------------
 
 SOLVING FOR HEAD 
 INITIAL HNEW IS AN EXACT SOLUTION.

 NO OUTPUT CONTROL FOR STRESS PERIOD   25   TIME STEP 3297

 -------------------------------------------------------------------------------
                             SWR1 OUTPUT PRINT TIMES
                        STRESS PERIOD   25   TIME STEP  3297
 --------------- --------------- --------------- --------------- ---------------
     0.48204E+06                                                                
 -------------------------------------------------------------------------------
 
 SOLVING FOR HEAD 
 INITIAL HNEW IS AN EXACT SOLUTION.

 NO OUTPUT CONTROL FOR STRESS PERIOD   25   TIME STEP 3298

 -------------------------------------------------------------------------------
                             SWR1 OUTPUT PRINT TIMES
                        STRESS PERIOD   25   TIME STEP  3298
 --------------- --------------- --------------- --------------- ---------------
     0.48216E+06                                                                
 -------------------------------------------------------------------------------
 
 SOLVING FOR HEAD 
 INITIAL HNEW IS AN EXACT SOLUTION.

 NO OUTPUT CONTROL FOR STRESS PERIOD   25   TIME STEP 3299

 -------------------------------------------------------------------------------
                             SWR1 OUTPUT PRINT TIMES
                        STRESS PERIOD   25   TIME STEP  3299
 --------------- --------------- --------------- --------------- ---------------
     0.48228E+06                                                                
 -------------------------------------------------------------------------------
 
 SOLVING FOR HEAD 
 INITIAL HNEW IS AN EXACT SOLUTION.

 NO OUTPUT CONTROL FOR STRESS PERIOD   25   TIME STEP 3300

 -------------------------------------------------------------------------------
                             SWR1 OUTPUT PRINT TIMES
                        STRESS PERIOD   25   TIME STEP  3300
 --------------- --------------- --------------- --------------- ---------------
     0.48240E+06                                                                
 -------------------------------------------------------------------------------
 
 SOLVING FOR HEAD 
 INITIAL HNEW IS AN EXACT SOLUTION.

 NO OUTPUT CONTROL FOR STRESS PERIOD   25   TIME STEP 3301

 -------------------------------------------------------------------------------
                             SWR1 OUTPUT PRINT TIMES
                        STRESS PERIOD   25   TIME STEP  3301
 --------------- --------------- --------------- --------------- ---------------
     0.48252E+06                                                                
 -------------------------------------------------------------------------------
 
 SOLVING FOR HEAD 
 INITIAL HNEW IS AN EXACT SOLUTION.

 NO OUTPUT CONTROL FOR STRESS PERIOD   25   TIME STEP 3302

 -------------------------------------------------------------------------------
                             SWR1 OUTPUT PRINT TIMES
                        STRESS PERIOD   25   TIME STEP  3302
 --------------- --------------- --------------- --------------- ---------------
     0.48264E+06                                                                
 -------------------------------------------------------------------------------
 
 SOLVING FOR HEAD 
 INITIAL HNEW IS AN EXACT SOLUTION.

 NO OUTPUT CONTROL FOR STRESS PERIOD   25   TIME STEP 3303

 -------------------------------------------------------------------------------
                             SWR1 OUTPUT PRINT TIMES
                        STRESS PERIOD   25   TIME STEP  3303
 --------------- --------------- --------------- --------------- ---------------
     0.48276E+06                                                                
 -------------------------------------------------------------------------------
 
 SOLVING FOR HEAD 
 INITIAL HNEW IS AN EXACT SOLUTION.

 NO OUTPUT CONTROL FOR STRESS PERIOD   25   TIME STEP 3304

 -------------------------------------------------------------------------------
                             SWR1 OUTPUT PRINT TIMES
                        STRESS PERIOD   25   TIME STEP  3304
 --------------- --------------- --------------- --------------- ---------------
     0.48288E+06                                                                
 -------------------------------------------------------------------------------
 
 SOLVING FOR HEAD 
 INITIAL HNEW IS AN EXACT SOLUTION.

 NO OUTPUT CONTROL FOR STRESS PERIOD   25   TIME STEP 3305

 -------------------------------------------------------------------------------
                             SWR1 OUTPUT PRINT TIMES
                        STRESS PERIOD   25   TIME STEP  3305
 --------------- --------------- --------------- --------------- ---------------
     0.48300E+06                                                                
 -------------------------------------------------------------------------------
 
 SOLVING FOR HEAD 
 INITIAL HNEW IS AN EXACT SOLUTION.

 NO OUTPUT CONTROL FOR STRESS PERIOD   25   TIME STEP 3306

 -------------------------------------------------------------------------------
                             SWR1 OUTPUT PRINT TIMES
                        STRESS PERIOD   25   TIME STEP  3306
 --------------- --------------- --------------- --------------- ---------------
     0.48312E+06                                                                
 -------------------------------------------------------------------------------
 
 SOLVING FOR HEAD 
 INITIAL HNEW IS AN EXACT SOLUTION.

 NO OUTPUT CONTROL FOR STRESS PERIOD   25   TIME STEP 3307

 -------------------------------------------------------------------------------
                             SWR1 OUTPUT PRINT TIMES
                        STRESS PERIOD   25   TIME STEP  3307
 --------------- --------------- --------------- --------------- ---------------
     0.48324E+06                                                                
 -------------------------------------------------------------------------------
 
 SOLVING FOR HEAD 
 INITIAL HNEW IS AN EXACT SOLUTION.

 NO OUTPUT CONTROL FOR STRESS PERIOD   25   TIME STEP 3308

 -------------------------------------------------------------------------------
                             SWR1 OUTPUT PRINT TIMES
                        STRESS PERIOD   25   TIME STEP  3308
 --------------- --------------- --------------- --------------- ---------------
     0.48336E+06                                                                
 -------------------------------------------------------------------------------
 
 SOLVING FOR HEAD 
 INITIAL HNEW IS AN EXACT SOLUTION.

 NO OUTPUT CONTROL FOR STRESS PERIOD   25   TIME STEP 3309

 -------------------------------------------------------------------------------
                             SWR1 OUTPUT PRINT TIMES
                        STRESS PERIOD   25   TIME STEP  3309
 --------------- --------------- --------------- --------------- ---------------
     0.48348E+06                                                                
 -------------------------------------------------------------------------------
 
 SOLVING FOR HEAD 
 INITIAL HNEW IS AN EXACT SOLUTION.

 NO OUTPUT CONTROL FOR STRESS PERIOD   25   TIME STEP 3310

 -------------------------------------------------------------------------------
                             SWR1 OUTPUT PRINT TIMES
                        STRESS PERIOD   25   TIME STEP  3310
 --------------- --------------- --------------- --------------- ---------------
     0.48360E+06                                                                
 -------------------------------------------------------------------------------
 
 SOLVING FOR HEAD 
 INITIAL HNEW IS AN EXACT SOLUTION.

 NO OUTPUT CONTROL FOR STRESS PERIOD   25   TIME STEP 3311

 -------------------------------------------------------------------------------
                             SWR1 OUTPUT PRINT TIMES
                        STRESS PERIOD   25   TIME STEP  3311
 --------------- --------------- --------------- --------------- ---------------
     0.48372E+06                                                                
 -------------------------------------------------------------------------------
 
 SOLVING FOR HEAD 
 INITIAL HNEW IS AN EXACT SOLUTION.

 NO OUTPUT CONTROL FOR STRESS PERIOD   25   TIME STEP 3312

 -------------------------------------------------------------------------------
                             SWR1 OUTPUT PRINT TIMES
                        STRESS PERIOD   25   TIME STEP  3312
 --------------- --------------- --------------- --------------- ---------------
     0.48384E+06                                                                
 -------------------------------------------------------------------------------
 
 SOLVING FOR HEAD 
 INITIAL HNEW IS AN EXACT SOLUTION.

 NO OUTPUT CONTROL FOR STRESS PERIOD   25   TIME STEP 3313

 -------------------------------------------------------------------------------
                             SWR1 OUTPUT PRINT TIMES
                        STRESS PERIOD   25   TIME STEP  3313
 --------------- --------------- --------------- --------------- ---------------
     0.48396E+06                                                                
 -------------------------------------------------------------------------------
 
 SOLVING FOR HEAD 
 INITIAL HNEW IS AN EXACT SOLUTION.

 NO OUTPUT CONTROL FOR STRESS PERIOD   25   TIME STEP 3314

 -------------------------------------------------------------------------------
                             SWR1 OUTPUT PRINT TIMES
                        STRESS PERIOD   25   TIME STEP  3314
 --------------- --------------- --------------- --------------- ---------------
     0.48408E+06                                                                
 -------------------------------------------------------------------------------
 
 SOLVING FOR HEAD 
 INITIAL HNEW IS AN EXACT SOLUTION.

 NO OUTPUT CONTROL FOR STRESS PERIOD   25   TIME STEP 3315

 -------------------------------------------------------------------------------
                             SWR1 OUTPUT PRINT TIMES
                        STRESS PERIOD   25   TIME STEP  3315
 --------------- --------------- --------------- --------------- ---------------
     0.48420E+06                                                                
 -------------------------------------------------------------------------------
 
 SOLVING FOR HEAD 
 INITIAL HNEW IS AN EXACT SOLUTION.

 NO OUTPUT CONTROL FOR STRESS PERIOD   25   TIME STEP 3316

 -------------------------------------------------------------------------------
                             SWR1 OUTPUT PRINT TIMES
                        STRESS PERIOD   25   TIME STEP  3316
 --------------- --------------- --------------- --------------- ---------------
     0.48432E+06                                                                
 -------------------------------------------------------------------------------
 
 SOLVING FOR HEAD 
 INITIAL HNEW IS AN EXACT SOLUTION.

 NO OUTPUT CONTROL FOR STRESS PERIOD   25   TIME STEP 3317

 -------------------------------------------------------------------------------
                             SWR1 OUTPUT PRINT TIMES
                        STRESS PERIOD   25   TIME STEP  3317
 --------------- --------------- --------------- --------------- ---------------
     0.48444E+06                                                                
 -------------------------------------------------------------------------------
 
 SOLVING FOR HEAD 
 INITIAL HNEW IS AN EXACT SOLUTION.

 NO OUTPUT CONTROL FOR STRESS PERIOD   25   TIME STEP 3318

 -------------------------------------------------------------------------------
                             SWR1 OUTPUT PRINT TIMES
                        STRESS PERIOD   25   TIME STEP  3318
 --------------- --------------- --------------- --------------- ---------------
     0.48456E+06                                                                
 -------------------------------------------------------------------------------
 
 SOLVING FOR HEAD 
 INITIAL HNEW IS AN EXACT SOLUTION.

 NO OUTPUT CONTROL FOR STRESS PERIOD   25   TIME STEP 3319

 -------------------------------------------------------------------------------
                             SWR1 OUTPUT PRINT TIMES
                        STRESS PERIOD   25   TIME STEP  3319
 --------------- --------------- --------------- --------------- ---------------
     0.48468E+06                                                                
 -------------------------------------------------------------------------------
 
 SOLVING FOR HEAD 
 INITIAL HNEW IS AN EXACT SOLUTION.

 NO OUTPUT CONTROL FOR STRESS PERIOD   25   TIME STEP 3320

 -------------------------------------------------------------------------------
                             SWR1 OUTPUT PRINT TIMES
                        STRESS PERIOD   25   TIME STEP  3320
 --------------- --------------- --------------- --------------- ---------------
     0.48480E+06                                                                
 -------------------------------------------------------------------------------
 
 SOLVING FOR HEAD 
 INITIAL HNEW IS AN EXACT SOLUTION.

 NO OUTPUT CONTROL FOR STRESS PERIOD   25   TIME STEP 3321

 -------------------------------------------------------------------------------
                             SWR1 OUTPUT PRINT TIMES
                        STRESS PERIOD   25   TIME STEP  3321
 --------------- --------------- --------------- --------------- ---------------
     0.48492E+06                                                                
 -------------------------------------------------------------------------------
 
 SOLVING FOR HEAD 
 INITIAL HNEW IS AN EXACT SOLUTION.

 NO OUTPUT CONTROL FOR STRESS PERIOD   25   TIME STEP 3322

 -------------------------------------------------------------------------------
                             SWR1 OUTPUT PRINT TIMES
                        STRESS PERIOD   25   TIME STEP  3322
 --------------- --------------- --------------- --------------- ---------------
     0.48504E+06                                                                
 -------------------------------------------------------------------------------
 
 SOLVING FOR HEAD 
 INITIAL HNEW IS AN EXACT SOLUTION.

 NO OUTPUT CONTROL FOR STRESS PERIOD   25   TIME STEP 3323

 -------------------------------------------------------------------------------
                             SWR1 OUTPUT PRINT TIMES
                        STRESS PERIOD   25   TIME STEP  3323
 --------------- --------------- --------------- --------------- ---------------
     0.48516E+06                                                                
 -------------------------------------------------------------------------------
 
 SOLVING FOR HEAD 
 INITIAL HNEW IS AN EXACT SOLUTION.

 NO OUTPUT CONTROL FOR STRESS PERIOD   25   TIME STEP 3324

 -------------------------------------------------------------------------------
                             SWR1 OUTPUT PRINT TIMES
                        STRESS PERIOD   25   TIME STEP  3324
 --------------- --------------- --------------- --------------- ---------------
     0.48528E+06                                                                
 -------------------------------------------------------------------------------
 
 SOLVING FOR HEAD 
 INITIAL HNEW IS AN EXACT SOLUTION.

 NO OUTPUT CONTROL FOR STRESS PERIOD   25   TIME STEP 3325

 -------------------------------------------------------------------------------
                             SWR1 OUTPUT PRINT TIMES
                        STRESS PERIOD   25   TIME STEP  3325
 --------------- --------------- --------------- --------------- ---------------
     0.48540E+06                                                                
 -------------------------------------------------------------------------------
 
 SOLVING FOR HEAD 
 INITIAL HNEW IS AN EXACT SOLUTION.

 NO OUTPUT CONTROL FOR STRESS PERIOD   25   TIME STEP 3326

 -------------------------------------------------------------------------------
                             SWR1 OUTPUT PRINT TIMES
                        STRESS PERIOD   25   TIME STEP  3326
 --------------- --------------- --------------- --------------- ---------------
     0.48552E+06                                                                
 -------------------------------------------------------------------------------
 
 SOLVING FOR HEAD 
 INITIAL HNEW IS AN EXACT SOLUTION.

 NO OUTPUT CONTROL FOR STRESS PERIOD   25   TIME STEP 3327

 -------------------------------------------------------------------------------
                             SWR1 OUTPUT PRINT TIMES
                        STRESS PERIOD   25   TIME STEP  3327
 --------------- --------------- --------------- --------------- ---------------
     0.48564E+06                                                                
 -------------------------------------------------------------------------------
 
 SOLVING FOR HEAD 
 INITIAL HNEW IS AN EXACT SOLUTION.

 NO OUTPUT CONTROL FOR STRESS PERIOD   25   TIME STEP 3328

 -------------------------------------------------------------------------------
                             SWR1 OUTPUT PRINT TIMES
                        STRESS PERIOD   25   TIME STEP  3328
 --------------- --------------- --------------- --------------- ---------------
     0.48576E+06                                                                
 -------------------------------------------------------------------------------
 
 SOLVING FOR HEAD 
 INITIAL HNEW IS AN EXACT SOLUTION.

 NO OUTPUT CONTROL FOR STRESS PERIOD   25   TIME STEP 3329

 -------------------------------------------------------------------------------
                             SWR1 OUTPUT PRINT TIMES
                        STRESS PERIOD   25   TIME STEP  3329
 --------------- --------------- --------------- --------------- ---------------
     0.48588E+06                                                                
 -------------------------------------------------------------------------------
 
 SOLVING FOR HEAD 
 INITIAL HNEW IS AN EXACT SOLUTION.

 NO OUTPUT CONTROL FOR STRESS PERIOD   25   TIME STEP 3330

 -------------------------------------------------------------------------------
                             SWR1 OUTPUT PRINT TIMES
                        STRESS PERIOD   25   TIME STEP  3330
 --------------- --------------- --------------- --------------- ---------------
     0.48600E+06                                                                
 -------------------------------------------------------------------------------
 
 SOLVING FOR HEAD 
 INITIAL HNEW IS AN EXACT SOLUTION.

 NO OUTPUT CONTROL FOR STRESS PERIOD   25   TIME STEP 3331

 -------------------------------------------------------------------------------
                             SWR1 OUTPUT PRINT TIMES
                        STRESS PERIOD   25   TIME STEP  3331
 --------------- --------------- --------------- --------------- ---------------
     0.48612E+06                                                                
 -------------------------------------------------------------------------------
 
 SOLVING FOR HEAD 
 INITIAL HNEW IS AN EXACT SOLUTION.

 NO OUTPUT CONTROL FOR STRESS PERIOD   25   TIME STEP 3332

 -------------------------------------------------------------------------------
                             SWR1 OUTPUT PRINT TIMES
                        STRESS PERIOD   25   TIME STEP  3332
 --------------- --------------- --------------- --------------- ---------------
     0.48624E+06                                                                
 -------------------------------------------------------------------------------
 
 SOLVING FOR HEAD 
 INITIAL HNEW IS AN EXACT SOLUTION.

 NO OUTPUT CONTROL FOR STRESS PERIOD   25   TIME STEP 3333

 -------------------------------------------------------------------------------
                             SWR1 OUTPUT PRINT TIMES
                        STRESS PERIOD   25   TIME STEP  3333
 --------------- --------------- --------------- --------------- ---------------
     0.48636E+06                                                                
 -------------------------------------------------------------------------------
 
 SOLVING FOR HEAD 
 INITIAL HNEW IS AN EXACT SOLUTION.

 NO OUTPUT CONTROL FOR STRESS PERIOD   25   TIME STEP 3334

 -------------------------------------------------------------------------------
                             SWR1 OUTPUT PRINT TIMES
                        STRESS PERIOD   25   TIME STEP  3334
 --------------- --------------- --------------- --------------- ---------------
     0.48648E+06                                                                
 -------------------------------------------------------------------------------
 
 SOLVING FOR HEAD 
 INITIAL HNEW IS AN EXACT SOLUTION.

 NO OUTPUT CONTROL FOR STRESS PERIOD   25   TIME STEP 3335

 -------------------------------------------------------------------------------
                             SWR1 OUTPUT PRINT TIMES
                        STRESS PERIOD   25   TIME STEP  3335
 --------------- --------------- --------------- --------------- ---------------
     0.48660E+06                                                                
 -------------------------------------------------------------------------------
 
 SOLVING FOR HEAD 
 INITIAL HNEW IS AN EXACT SOLUTION.

 NO OUTPUT CONTROL FOR STRESS PERIOD   25   TIME STEP 3336

 -------------------------------------------------------------------------------
                             SWR1 OUTPUT PRINT TIMES
                        STRESS PERIOD   25   TIME STEP  3336
 --------------- --------------- --------------- --------------- ---------------
     0.48672E+06                                                                
 -------------------------------------------------------------------------------
 
 SOLVING FOR HEAD 
 INITIAL HNEW IS AN EXACT SOLUTION.

 NO OUTPUT CONTROL FOR STRESS PERIOD   25   TIME STEP 3337

 -------------------------------------------------------------------------------
                             SWR1 OUTPUT PRINT TIMES
                        STRESS PERIOD   25   TIME STEP  3337
 --------------- --------------- --------------- --------------- ---------------
     0.48684E+06                                                                
 -------------------------------------------------------------------------------
 
 SOLVING FOR HEAD 
 INITIAL HNEW IS AN EXACT SOLUTION.

 NO OUTPUT CONTROL FOR STRESS PERIOD   25   TIME STEP 3338

 -------------------------------------------------------------------------------
                             SWR1 OUTPUT PRINT TIMES
                        STRESS PERIOD   25   TIME STEP  3338
 --------------- --------------- --------------- --------------- ---------------
     0.48696E+06                                                                
 -------------------------------------------------------------------------------
 
 SOLVING FOR HEAD 
 INITIAL HNEW IS AN EXACT SOLUTION.

 NO OUTPUT CONTROL FOR STRESS PERIOD   25   TIME STEP 3339

 -------------------------------------------------------------------------------
                             SWR1 OUTPUT PRINT TIMES
                        STRESS PERIOD   25   TIME STEP  3339
 --------------- --------------- --------------- --------------- ---------------
     0.48708E+06                                                                
 -------------------------------------------------------------------------------
 
 SOLVING FOR HEAD 
 INITIAL HNEW IS AN EXACT SOLUTION.

 NO OUTPUT CONTROL FOR STRESS PERIOD   25   TIME STEP 3340

 -------------------------------------------------------------------------------
                             SWR1 OUTPUT PRINT TIMES
                        STRESS PERIOD   25   TIME STEP  3340
 --------------- --------------- --------------- --------------- ---------------
     0.48720E+06                                                                
 -------------------------------------------------------------------------------
 
 SOLVING FOR HEAD 
 INITIAL HNEW IS AN EXACT SOLUTION.

 NO OUTPUT CONTROL FOR STRESS PERIOD   25   TIME STEP 3341

 -------------------------------------------------------------------------------
                             SWR1 OUTPUT PRINT TIMES
                        STRESS PERIOD   25   TIME STEP  3341
 --------------- --------------- --------------- --------------- ---------------
     0.48732E+06                                                                
 -------------------------------------------------------------------------------
 
 SOLVING FOR HEAD 
 INITIAL HNEW IS AN EXACT SOLUTION.

 NO OUTPUT CONTROL FOR STRESS PERIOD   25   TIME STEP 3342

 -------------------------------------------------------------------------------
                             SWR1 OUTPUT PRINT TIMES
                        STRESS PERIOD   25   TIME STEP  3342
 --------------- --------------- --------------- --------------- ---------------
     0.48744E+06                                                                
 -------------------------------------------------------------------------------
 
 SOLVING FOR HEAD 
 INITIAL HNEW IS AN EXACT SOLUTION.

 NO OUTPUT CONTROL FOR STRESS PERIOD   25   TIME STEP 3343

 -------------------------------------------------------------------------------
                             SWR1 OUTPUT PRINT TIMES
                        STRESS PERIOD   25   TIME STEP  3343
 --------------- --------------- --------------- --------------- ---------------
     0.48756E+06                                                                
 -------------------------------------------------------------------------------
 
 SOLVING FOR HEAD 
 INITIAL HNEW IS AN EXACT SOLUTION.

 NO OUTPUT CONTROL FOR STRESS PERIOD   25   TIME STEP 3344

 -------------------------------------------------------------------------------
                             SWR1 OUTPUT PRINT TIMES
                        STRESS PERIOD   25   TIME STEP  3344
 --------------- --------------- --------------- --------------- ---------------
     0.48768E+06                                                                
 -------------------------------------------------------------------------------
 
 SOLVING FOR HEAD 
 INITIAL HNEW IS AN EXACT SOLUTION.

 NO OUTPUT CONTROL FOR STRESS PERIOD   25   TIME STEP 3345

 -------------------------------------------------------------------------------
                             SWR1 OUTPUT PRINT TIMES
                        STRESS PERIOD   25   TIME STEP  3345
 --------------- --------------- --------------- --------------- ---------------
     0.48780E+06                                                                
 -------------------------------------------------------------------------------
 
 SOLVING FOR HEAD 
 INITIAL HNEW IS AN EXACT SOLUTION.

 NO OUTPUT CONTROL FOR STRESS PERIOD   25   TIME STEP 3346

 -------------------------------------------------------------------------------
                             SWR1 OUTPUT PRINT TIMES
                        STRESS PERIOD   25   TIME STEP  3346
 --------------- --------------- --------------- --------------- ---------------
     0.48792E+06                                                                
 -------------------------------------------------------------------------------
 
 SOLVING FOR HEAD 
 INITIAL HNEW IS AN EXACT SOLUTION.

 NO OUTPUT CONTROL FOR STRESS PERIOD   25   TIME STEP 3347

 -------------------------------------------------------------------------------
                             SWR1 OUTPUT PRINT TIMES
                        STRESS PERIOD   25   TIME STEP  3347
 --------------- --------------- --------------- --------------- ---------------
     0.48804E+06                                                                
 -------------------------------------------------------------------------------
 
 SOLVING FOR HEAD 
 INITIAL HNEW IS AN EXACT SOLUTION.

 NO OUTPUT CONTROL FOR STRESS PERIOD   25   TIME STEP 3348

 -------------------------------------------------------------------------------
                             SWR1 OUTPUT PRINT TIMES
                        STRESS PERIOD   25   TIME STEP  3348
 --------------- --------------- --------------- --------------- ---------------
     0.48816E+06                                                                
 -------------------------------------------------------------------------------
 
 SOLVING FOR HEAD 
 INITIAL HNEW IS AN EXACT SOLUTION.

 NO OUTPUT CONTROL FOR STRESS PERIOD   25   TIME STEP 3349

 -------------------------------------------------------------------------------
                             SWR1 OUTPUT PRINT TIMES
                        STRESS PERIOD   25   TIME STEP  3349
 --------------- --------------- --------------- --------------- ---------------
     0.48828E+06                                                                
 -------------------------------------------------------------------------------
 
 SOLVING FOR HEAD 
 INITIAL HNEW IS AN EXACT SOLUTION.

 NO OUTPUT CONTROL FOR STRESS PERIOD   25   TIME STEP 3350

 -------------------------------------------------------------------------------
                             SWR1 OUTPUT PRINT TIMES
                        STRESS PERIOD   25   TIME STEP  3350
 --------------- --------------- --------------- --------------- ---------------
     0.48840E+06                                                                
 -------------------------------------------------------------------------------
 
 SOLVING FOR HEAD 
 INITIAL HNEW IS AN EXACT SOLUTION.

 NO OUTPUT CONTROL FOR STRESS PERIOD   25   TIME STEP 3351

 -------------------------------------------------------------------------------
                             SWR1 OUTPUT PRINT TIMES
                        STRESS PERIOD   25   TIME STEP  3351
 --------------- --------------- --------------- --------------- ---------------
     0.48852E+06                                                                
 -------------------------------------------------------------------------------
 
 SOLVING FOR HEAD 
 INITIAL HNEW IS AN EXACT SOLUTION.

 NO OUTPUT CONTROL FOR STRESS PERIOD   25   TIME STEP 3352

 -------------------------------------------------------------------------------
                             SWR1 OUTPUT PRINT TIMES
                        STRESS PERIOD   25   TIME STEP  3352
 --------------- --------------- --------------- --------------- ---------------
     0.48864E+06                                                                
 -------------------------------------------------------------------------------
 
 SOLVING FOR HEAD 
 INITIAL HNEW IS AN EXACT SOLUTION.

 NO OUTPUT CONTROL FOR STRESS PERIOD   25   TIME STEP 3353

 -------------------------------------------------------------------------------
                             SWR1 OUTPUT PRINT TIMES
                        STRESS PERIOD   25   TIME STEP  3353
 --------------- --------------- --------------- --------------- ---------------
     0.48876E+06                                                                
 -------------------------------------------------------------------------------
 
 SOLVING FOR HEAD 
 INITIAL HNEW IS AN EXACT SOLUTION.

 NO OUTPUT CONTROL FOR STRESS PERIOD   25   TIME STEP 3354

 -------------------------------------------------------------------------------
                             SWR1 OUTPUT PRINT TIMES
                        STRESS PERIOD   25   TIME STEP  3354
 --------------- --------------- --------------- --------------- ---------------
     0.48888E+06                                                                
 -------------------------------------------------------------------------------
 
 SOLVING FOR HEAD 
 INITIAL HNEW IS AN EXACT SOLUTION.

 NO OUTPUT CONTROL FOR STRESS PERIOD   25   TIME STEP 3355

 -------------------------------------------------------------------------------
                             SWR1 OUTPUT PRINT TIMES
                        STRESS PERIOD   25   TIME STEP  3355
 --------------- --------------- --------------- --------------- ---------------
     0.48900E+06                                                                
 -------------------------------------------------------------------------------
 
 SOLVING FOR HEAD 
 INITIAL HNEW IS AN EXACT SOLUTION.

 NO OUTPUT CONTROL FOR STRESS PERIOD   25   TIME STEP 3356

 -------------------------------------------------------------------------------
                             SWR1 OUTPUT PRINT TIMES
                        STRESS PERIOD   25   TIME STEP  3356
 --------------- --------------- --------------- --------------- ---------------
     0.48912E+06                                                                
 -------------------------------------------------------------------------------
 
 SOLVING FOR HEAD 
 INITIAL HNEW IS AN EXACT SOLUTION.

 NO OUTPUT CONTROL FOR STRESS PERIOD   25   TIME STEP 3357

 -------------------------------------------------------------------------------
                             SWR1 OUTPUT PRINT TIMES
                        STRESS PERIOD   25   TIME STEP  3357
 --------------- --------------- --------------- --------------- ---------------
     0.48924E+06                                                                
 -------------------------------------------------------------------------------
 
 SOLVING FOR HEAD 
 INITIAL HNEW IS AN EXACT SOLUTION.

 NO OUTPUT CONTROL FOR STRESS PERIOD   25   TIME STEP 3358

 -------------------------------------------------------------------------------
                             SWR1 OUTPUT PRINT TIMES
                        STRESS PERIOD   25   TIME STEP  3358
 --------------- --------------- --------------- --------------- ---------------
     0.48936E+06                                                                
 -------------------------------------------------------------------------------
 
 SOLVING FOR HEAD 
 INITIAL HNEW IS AN EXACT SOLUTION.

 NO OUTPUT CONTROL FOR STRESS PERIOD   25   TIME STEP 3359

 -------------------------------------------------------------------------------
                             SWR1 OUTPUT PRINT TIMES
                        STRESS PERIOD   25   TIME STEP  3359
 --------------- --------------- --------------- --------------- ---------------
     0.48948E+06                                                                
 -------------------------------------------------------------------------------
 
 SOLVING FOR HEAD 
 INITIAL HNEW IS AN EXACT SOLUTION.

 NO OUTPUT CONTROL FOR STRESS PERIOD   25   TIME STEP 3360

 -------------------------------------------------------------------------------
                             SWR1 OUTPUT PRINT TIMES
                        STRESS PERIOD   25   TIME STEP  3360
 --------------- --------------- --------------- --------------- ---------------
     0.48960E+06                                                                
 -------------------------------------------------------------------------------
 
 SOLVING FOR HEAD 
 INITIAL HNEW IS AN EXACT SOLUTION.

 NO OUTPUT CONTROL FOR STRESS PERIOD   25   TIME STEP 3361

 -------------------------------------------------------------------------------
                             SWR1 OUTPUT PRINT TIMES
                        STRESS PERIOD   25   TIME STEP  3361
 --------------- --------------- --------------- --------------- ---------------
     0.48972E+06                                                                
 -------------------------------------------------------------------------------
 
 SOLVING FOR HEAD 
 INITIAL HNEW IS AN EXACT SOLUTION.

 NO OUTPUT CONTROL FOR STRESS PERIOD   25   TIME STEP 3362

 -------------------------------------------------------------------------------
                             SWR1 OUTPUT PRINT TIMES
                        STRESS PERIOD   25   TIME STEP  3362
 --------------- --------------- --------------- --------------- ---------------
     0.48984E+06                                                                
 -------------------------------------------------------------------------------
 
 SOLVING FOR HEAD 
 INITIAL HNEW IS AN EXACT SOLUTION.

 NO OUTPUT CONTROL FOR STRESS PERIOD   25   TIME STEP 3363

 -------------------------------------------------------------------------------
                             SWR1 OUTPUT PRINT TIMES
                        STRESS PERIOD   25   TIME STEP  3363
 --------------- --------------- --------------- --------------- ---------------
     0.48996E+06                                                                
 -------------------------------------------------------------------------------
 
 SOLVING FOR HEAD 
 INITIAL HNEW IS AN EXACT SOLUTION.

 NO OUTPUT CONTROL FOR STRESS PERIOD   25   TIME STEP 3364

 -------------------------------------------------------------------------------
                             SWR1 OUTPUT PRINT TIMES
                        STRESS PERIOD   25   TIME STEP  3364
 --------------- --------------- --------------- --------------- ---------------
     0.49008E+06                                                                
 -------------------------------------------------------------------------------
 
 SOLVING FOR HEAD 
 INITIAL HNEW IS AN EXACT SOLUTION.

 NO OUTPUT CONTROL FOR STRESS PERIOD   25   TIME STEP 3365

 -------------------------------------------------------------------------------
                             SWR1 OUTPUT PRINT TIMES
                        STRESS PERIOD   25   TIME STEP  3365
 --------------- --------------- --------------- --------------- ---------------
     0.49020E+06                                                                
 -------------------------------------------------------------------------------
 
 SOLVING FOR HEAD 
 INITIAL HNEW IS AN EXACT SOLUTION.

 NO OUTPUT CONTROL FOR STRESS PERIOD   25   TIME STEP 3366

 -------------------------------------------------------------------------------
                             SWR1 OUTPUT PRINT TIMES
                        STRESS PERIOD   25   TIME STEP  3366
 --------------- --------------- --------------- --------------- ---------------
     0.49032E+06                                                                
 -------------------------------------------------------------------------------
 
 SOLVING FOR HEAD 
 INITIAL HNEW IS AN EXACT SOLUTION.

 NO OUTPUT CONTROL FOR STRESS PERIOD   25   TIME STEP 3367

 -------------------------------------------------------------------------------
                             SWR1 OUTPUT PRINT TIMES
                        STRESS PERIOD   25   TIME STEP  3367
 --------------- --------------- --------------- --------------- ---------------
     0.49044E+06                                                                
 -------------------------------------------------------------------------------
 
 SOLVING FOR HEAD 
 INITIAL HNEW IS AN EXACT SOLUTION.

 NO OUTPUT CONTROL FOR STRESS PERIOD   25   TIME STEP 3368

 -------------------------------------------------------------------------------
                             SWR1 OUTPUT PRINT TIMES
                        STRESS PERIOD   25   TIME STEP  3368
 --------------- --------------- --------------- --------------- ---------------
     0.49056E+06                                                                
 -------------------------------------------------------------------------------
 
 SOLVING FOR HEAD 
 INITIAL HNEW IS AN EXACT SOLUTION.

 NO OUTPUT CONTROL FOR STRESS PERIOD   25   TIME STEP 3369

 -------------------------------------------------------------------------------
                             SWR1 OUTPUT PRINT TIMES
                        STRESS PERIOD   25   TIME STEP  3369
 --------------- --------------- --------------- --------------- ---------------
     0.49068E+06                                                                
 -------------------------------------------------------------------------------
 
 SOLVING FOR HEAD 
 INITIAL HNEW IS AN EXACT SOLUTION.

 NO OUTPUT CONTROL FOR STRESS PERIOD   25   TIME STEP 3370

 -------------------------------------------------------------------------------
                             SWR1 OUTPUT PRINT TIMES
                        STRESS PERIOD   25   TIME STEP  3370
 --------------- --------------- --------------- --------------- ---------------
     0.49080E+06                                                                
 -------------------------------------------------------------------------------
 
 SOLVING FOR HEAD 
 INITIAL HNEW IS AN EXACT SOLUTION.

 NO OUTPUT CONTROL FOR STRESS PERIOD   25   TIME STEP 3371

 -------------------------------------------------------------------------------
                             SWR1 OUTPUT PRINT TIMES
                        STRESS PERIOD   25   TIME STEP  3371
 --------------- --------------- --------------- --------------- ---------------
     0.49092E+06                                                                
 -------------------------------------------------------------------------------
 
 SOLVING FOR HEAD 
 INITIAL HNEW IS AN EXACT SOLUTION.

 NO OUTPUT CONTROL FOR STRESS PERIOD   25   TIME STEP 3372

 -------------------------------------------------------------------------------
                             SWR1 OUTPUT PRINT TIMES
                        STRESS PERIOD   25   TIME STEP  3372
 --------------- --------------- --------------- --------------- ---------------
     0.49104E+06                                                                
 -------------------------------------------------------------------------------
 
 SOLVING FOR HEAD 
 INITIAL HNEW IS AN EXACT SOLUTION.

 NO OUTPUT CONTROL FOR STRESS PERIOD   25   TIME STEP 3373

 -------------------------------------------------------------------------------
                             SWR1 OUTPUT PRINT TIMES
                        STRESS PERIOD   25   TIME STEP  3373
 --------------- --------------- --------------- --------------- ---------------
     0.49116E+06                                                                
 -------------------------------------------------------------------------------
 
 SOLVING FOR HEAD 
 INITIAL HNEW IS AN EXACT SOLUTION.

 NO OUTPUT CONTROL FOR STRESS PERIOD   25   TIME STEP 3374

 -------------------------------------------------------------------------------
                             SWR1 OUTPUT PRINT TIMES
                        STRESS PERIOD   25   TIME STEP  3374
 --------------- --------------- --------------- --------------- ---------------
     0.49128E+06                                                                
 -------------------------------------------------------------------------------
 
 SOLVING FOR HEAD 
 INITIAL HNEW IS AN EXACT SOLUTION.

 NO OUTPUT CONTROL FOR STRESS PERIOD   25   TIME STEP 3375

 -------------------------------------------------------------------------------
                             SWR1 OUTPUT PRINT TIMES
                        STRESS PERIOD   25   TIME STEP  3375
 --------------- --------------- --------------- --------------- ---------------
     0.49140E+06                                                                
 -------------------------------------------------------------------------------
 
 SOLVING FOR HEAD 
 INITIAL HNEW IS AN EXACT SOLUTION.

 NO OUTPUT CONTROL FOR STRESS PERIOD   25   TIME STEP 3376

 -------------------------------------------------------------------------------
                             SWR1 OUTPUT PRINT TIMES
                        STRESS PERIOD   25   TIME STEP  3376
 --------------- --------------- --------------- --------------- ---------------
     0.49152E+06                                                                
 -------------------------------------------------------------------------------
 
 SOLVING FOR HEAD 
 INITIAL HNEW IS AN EXACT SOLUTION.

 NO OUTPUT CONTROL FOR STRESS PERIOD   25   TIME STEP 3377

 -------------------------------------------------------------------------------
                             SWR1 OUTPUT PRINT TIMES
                        STRESS PERIOD   25   TIME STEP  3377
 --------------- --------------- --------------- --------------- ---------------
     0.49164E+06                                                                
 -------------------------------------------------------------------------------
 
 SOLVING FOR HEAD 
 INITIAL HNEW IS AN EXACT SOLUTION.

 NO OUTPUT CONTROL FOR STRESS PERIOD   25   TIME STEP 3378

 -------------------------------------------------------------------------------
                             SWR1 OUTPUT PRINT TIMES
                        STRESS PERIOD   25   TIME STEP  3378
 --------------- --------------- --------------- --------------- ---------------
     0.49176E+06                                                                
 -------------------------------------------------------------------------------
 
 SOLVING FOR HEAD 
 INITIAL HNEW IS AN EXACT SOLUTION.

 NO OUTPUT CONTROL FOR STRESS PERIOD   25   TIME STEP 3379

 -------------------------------------------------------------------------------
                             SWR1 OUTPUT PRINT TIMES
                        STRESS PERIOD   25   TIME STEP  3379
 --------------- --------------- --------------- --------------- ---------------
     0.49188E+06                                                                
 -------------------------------------------------------------------------------
 
 SOLVING FOR HEAD 
 INITIAL HNEW IS AN EXACT SOLUTION.

 NO OUTPUT CONTROL FOR STRESS PERIOD   25   TIME STEP 3380

 -------------------------------------------------------------------------------
                             SWR1 OUTPUT PRINT TIMES
                        STRESS PERIOD   25   TIME STEP  3380
 --------------- --------------- --------------- --------------- ---------------
     0.49200E+06                                                                
 -------------------------------------------------------------------------------
 
 SOLVING FOR HEAD 
 INITIAL HNEW IS AN EXACT SOLUTION.

 NO OUTPUT CONTROL FOR STRESS PERIOD   25   TIME STEP 3381

 -------------------------------------------------------------------------------
                             SWR1 OUTPUT PRINT TIMES
                        STRESS PERIOD   25   TIME STEP  3381
 --------------- --------------- --------------- --------------- ---------------
     0.49212E+06                                                                
 -------------------------------------------------------------------------------
 
 SOLVING FOR HEAD 
 INITIAL HNEW IS AN EXACT SOLUTION.

 NO OUTPUT CONTROL FOR STRESS PERIOD   25   TIME STEP 3382

 -------------------------------------------------------------------------------
                             SWR1 OUTPUT PRINT TIMES
                        STRESS PERIOD   25   TIME STEP  3382
 --------------- --------------- --------------- --------------- ---------------
     0.49224E+06                                                                
 -------------------------------------------------------------------------------
 
 SOLVING FOR HEAD 
 INITIAL HNEW IS AN EXACT SOLUTION.

 NO OUTPUT CONTROL FOR STRESS PERIOD   25   TIME STEP 3383

 -------------------------------------------------------------------------------
                             SWR1 OUTPUT PRINT TIMES
                        STRESS PERIOD   25   TIME STEP  3383
 --------------- --------------- --------------- --------------- ---------------
     0.49236E+06                                                                
 -------------------------------------------------------------------------------
 
 SOLVING FOR HEAD 
 INITIAL HNEW IS AN EXACT SOLUTION.

 NO OUTPUT CONTROL FOR STRESS PERIOD   25   TIME STEP 3384

 -------------------------------------------------------------------------------
                             SWR1 OUTPUT PRINT TIMES
                        STRESS PERIOD   25   TIME STEP  3384
 --------------- --------------- --------------- --------------- ---------------
     0.49248E+06                                                                
 -------------------------------------------------------------------------------
 
 SOLVING FOR HEAD 
 INITIAL HNEW IS AN EXACT SOLUTION.

 NO OUTPUT CONTROL FOR STRESS PERIOD   25   TIME STEP 3385

 -------------------------------------------------------------------------------
                             SWR1 OUTPUT PRINT TIMES
                        STRESS PERIOD   25   TIME STEP  3385
 --------------- --------------- --------------- --------------- ---------------
     0.49260E+06                                                                
 -------------------------------------------------------------------------------
 
 SOLVING FOR HEAD 
 INITIAL HNEW IS AN EXACT SOLUTION.

 NO OUTPUT CONTROL FOR STRESS PERIOD   25   TIME STEP 3386

 -------------------------------------------------------------------------------
                             SWR1 OUTPUT PRINT TIMES
                        STRESS PERIOD   25   TIME STEP  3386
 --------------- --------------- --------------- --------------- ---------------
     0.49272E+06                                                                
 -------------------------------------------------------------------------------
 
 SOLVING FOR HEAD 
 INITIAL HNEW IS AN EXACT SOLUTION.

 NO OUTPUT CONTROL FOR STRESS PERIOD   25   TIME STEP 3387

 -------------------------------------------------------------------------------
                             SWR1 OUTPUT PRINT TIMES
                        STRESS PERIOD   25   TIME STEP  3387
 --------------- --------------- --------------- --------------- ---------------
     0.49284E+06                                                                
 -------------------------------------------------------------------------------
 
 SOLVING FOR HEAD 
 INITIAL HNEW IS AN EXACT SOLUTION.

 NO OUTPUT CONTROL FOR STRESS PERIOD   25   TIME STEP 3388

 -------------------------------------------------------------------------------
                             SWR1 OUTPUT PRINT TIMES
                        STRESS PERIOD   25   TIME STEP  3388
 --------------- --------------- --------------- --------------- ---------------
     0.49296E+06                                                                
 -------------------------------------------------------------------------------
 
 SOLVING FOR HEAD 
 INITIAL HNEW IS AN EXACT SOLUTION.

 NO OUTPUT CONTROL FOR STRESS PERIOD   25   TIME STEP 3389

 -------------------------------------------------------------------------------
                             SWR1 OUTPUT PRINT TIMES
                        STRESS PERIOD   25   TIME STEP  3389
 --------------- --------------- --------------- --------------- ---------------
     0.49308E+06                                                                
 -------------------------------------------------------------------------------
 
 SOLVING FOR HEAD 
 INITIAL HNEW IS AN EXACT SOLUTION.

 NO OUTPUT CONTROL FOR STRESS PERIOD   25   TIME STEP 3390

 -------------------------------------------------------------------------------
                             SWR1 OUTPUT PRINT TIMES
                        STRESS PERIOD   25   TIME STEP  3390
 --------------- --------------- --------------- --------------- ---------------
     0.49320E+06                                                                
 -------------------------------------------------------------------------------
 
 SOLVING FOR HEAD 
 INITIAL HNEW IS AN EXACT SOLUTION.

 NO OUTPUT CONTROL FOR STRESS PERIOD   25   TIME STEP 3391

 -------------------------------------------------------------------------------
                             SWR1 OUTPUT PRINT TIMES
                        STRESS PERIOD   25   TIME STEP  3391
 --------------- --------------- --------------- --------------- ---------------
     0.49332E+06                                                                
 -------------------------------------------------------------------------------
 
 SOLVING FOR HEAD 
 INITIAL HNEW IS AN EXACT SOLUTION.

 NO OUTPUT CONTROL FOR STRESS PERIOD   25   TIME STEP 3392

 -------------------------------------------------------------------------------
                             SWR1 OUTPUT PRINT TIMES
                        STRESS PERIOD   25   TIME STEP  3392
 --------------- --------------- --------------- --------------- ---------------
     0.49344E+06                                                                
 -------------------------------------------------------------------------------
 
 SOLVING FOR HEAD 
 INITIAL HNEW IS AN EXACT SOLUTION.

 NO OUTPUT CONTROL FOR STRESS PERIOD   25   TIME STEP 3393

 -------------------------------------------------------------------------------
                             SWR1 OUTPUT PRINT TIMES
                        STRESS PERIOD   25   TIME STEP  3393
 --------------- --------------- --------------- --------------- ---------------
     0.49356E+06                                                                
 -------------------------------------------------------------------------------
 
 SOLVING FOR HEAD 
 INITIAL HNEW IS AN EXACT SOLUTION.

 NO OUTPUT CONTROL FOR STRESS PERIOD   25   TIME STEP 3394

 -------------------------------------------------------------------------------
                             SWR1 OUTPUT PRINT TIMES
                        STRESS PERIOD   25   TIME STEP  3394
 --------------- --------------- --------------- --------------- ---------------
     0.49368E+06                                                                
 -------------------------------------------------------------------------------
 
 SOLVING FOR HEAD 
 INITIAL HNEW IS AN EXACT SOLUTION.

 NO OUTPUT CONTROL FOR STRESS PERIOD   25   TIME STEP 3395

 -------------------------------------------------------------------------------
                             SWR1 OUTPUT PRINT TIMES
                        STRESS PERIOD   25   TIME STEP  3395
 --------------- --------------- --------------- --------------- ---------------
     0.49380E+06                                                                
 -------------------------------------------------------------------------------
 
 SOLVING FOR HEAD 
 INITIAL HNEW IS AN EXACT SOLUTION.

 NO OUTPUT CONTROL FOR STRESS PERIOD   25   TIME STEP 3396

 -------------------------------------------------------------------------------
                             SWR1 OUTPUT PRINT TIMES
                        STRESS PERIOD   25   TIME STEP  3396
 --------------- --------------- --------------- --------------- ---------------
     0.49392E+06                                                                
 -------------------------------------------------------------------------------
 
 SOLVING FOR HEAD 
 INITIAL HNEW IS AN EXACT SOLUTION.

 NO OUTPUT CONTROL FOR STRESS PERIOD   25   TIME STEP 3397

 -------------------------------------------------------------------------------
                             SWR1 OUTPUT PRINT TIMES
                        STRESS PERIOD   25   TIME STEP  3397
 --------------- --------------- --------------- --------------- ---------------
     0.49404E+06                                                                
 -------------------------------------------------------------------------------
 
 SOLVING FOR HEAD 
 INITIAL HNEW IS AN EXACT SOLUTION.

 NO OUTPUT CONTROL FOR STRESS PERIOD   25   TIME STEP 3398

 -------------------------------------------------------------------------------
                             SWR1 OUTPUT PRINT TIMES
                        STRESS PERIOD   25   TIME STEP  3398
 --------------- --------------- --------------- --------------- ---------------
     0.49416E+06                                                                
 -------------------------------------------------------------------------------
 
 SOLVING FOR HEAD 
 INITIAL HNEW IS AN EXACT SOLUTION.

 NO OUTPUT CONTROL FOR STRESS PERIOD   25   TIME STEP 3399

 -------------------------------------------------------------------------------
                             SWR1 OUTPUT PRINT TIMES
                        STRESS PERIOD   25   TIME STEP  3399
 --------------- --------------- --------------- --------------- ---------------
     0.49428E+06                                                                
 -------------------------------------------------------------------------------
 
 SOLVING FOR HEAD 
 INITIAL HNEW IS AN EXACT SOLUTION.

 NO OUTPUT CONTROL FOR STRESS PERIOD   25   TIME STEP 3400

 -------------------------------------------------------------------------------
                             SWR1 OUTPUT PRINT TIMES
                        STRESS PERIOD   25   TIME STEP  3400
 --------------- --------------- --------------- --------------- ---------------
     0.49440E+06                                                                
 -------------------------------------------------------------------------------
 
 SOLVING FOR HEAD 
 INITIAL HNEW IS AN EXACT SOLUTION.

 NO OUTPUT CONTROL FOR STRESS PERIOD   25   TIME STEP 3401

 -------------------------------------------------------------------------------
                             SWR1 OUTPUT PRINT TIMES
                        STRESS PERIOD   25   TIME STEP  3401
 --------------- --------------- --------------- --------------- ---------------
     0.49452E+06                                                                
 -------------------------------------------------------------------------------
 
 SOLVING FOR HEAD 
 INITIAL HNEW IS AN EXACT SOLUTION.

 NO OUTPUT CONTROL FOR STRESS PERIOD   25   TIME STEP 3402

 -------------------------------------------------------------------------------
                             SWR1 OUTPUT PRINT TIMES
                        STRESS PERIOD   25   TIME STEP  3402
 --------------- --------------- --------------- --------------- ---------------
     0.49464E+06                                                                
 -------------------------------------------------------------------------------
 
 SOLVING FOR HEAD 
 INITIAL HNEW IS AN EXACT SOLUTION.

 NO OUTPUT CONTROL FOR STRESS PERIOD   25   TIME STEP 3403

 -------------------------------------------------------------------------------
                             SWR1 OUTPUT PRINT TIMES
                        STRESS PERIOD   25   TIME STEP  3403
 --------------- --------------- --------------- --------------- ---------------
     0.49476E+06                                                                
 -------------------------------------------------------------------------------
 
 SOLVING FOR HEAD 
 INITIAL HNEW IS AN EXACT SOLUTION.

 NO OUTPUT CONTROL FOR STRESS PERIOD   25   TIME STEP 3404

 -------------------------------------------------------------------------------
                             SWR1 OUTPUT PRINT TIMES
                        STRESS PERIOD   25   TIME STEP  3404
 --------------- --------------- --------------- --------------- ---------------
     0.49488E+06                                                                
 -------------------------------------------------------------------------------
 
 SOLVING FOR HEAD 
 INITIAL HNEW IS AN EXACT SOLUTION.

 NO OUTPUT CONTROL FOR STRESS PERIOD   25   TIME STEP 3405

 -------------------------------------------------------------------------------
                             SWR1 OUTPUT PRINT TIMES
                        STRESS PERIOD   25   TIME STEP  3405
 --------------- --------------- --------------- --------------- ---------------
     0.49500E+06                                                                
 -------------------------------------------------------------------------------
 
 SOLVING FOR HEAD 
 INITIAL HNEW IS AN EXACT SOLUTION.

 NO OUTPUT CONTROL FOR STRESS PERIOD   25   TIME STEP 3406

 -------------------------------------------------------------------------------
                             SWR1 OUTPUT PRINT TIMES
                        STRESS PERIOD   25   TIME STEP  3406
 --------------- --------------- --------------- --------------- ---------------
     0.49512E+06                                                                
 -------------------------------------------------------------------------------
 
 SOLVING FOR HEAD 
 INITIAL HNEW IS AN EXACT SOLUTION.

 NO OUTPUT CONTROL FOR STRESS PERIOD   25   TIME STEP 3407

 -------------------------------------------------------------------------------
                             SWR1 OUTPUT PRINT TIMES
                        STRESS PERIOD   25   TIME STEP  3407
 --------------- --------------- --------------- --------------- ---------------
     0.49524E+06                                                                
 -------------------------------------------------------------------------------
 
 SOLVING FOR HEAD 
 INITIAL HNEW IS AN EXACT SOLUTION.

 NO OUTPUT CONTROL FOR STRESS PERIOD   25   TIME STEP 3408

 -------------------------------------------------------------------------------
                             SWR1 OUTPUT PRINT TIMES
                        STRESS PERIOD   25   TIME STEP  3408
 --------------- --------------- --------------- --------------- ---------------
     0.49536E+06                                                                
 -------------------------------------------------------------------------------
 
 SOLVING FOR HEAD 
 INITIAL HNEW IS AN EXACT SOLUTION.

 NO OUTPUT CONTROL FOR STRESS PERIOD   25   TIME STEP 3409

 -------------------------------------------------------------------------------
                             SWR1 OUTPUT PRINT TIMES
                        STRESS PERIOD   25   TIME STEP  3409
 --------------- --------------- --------------- --------------- ---------------
     0.49548E+06                                                                
 -------------------------------------------------------------------------------
 
 SOLVING FOR HEAD 
 INITIAL HNEW IS AN EXACT SOLUTION.

 NO OUTPUT CONTROL FOR STRESS PERIOD   25   TIME STEP 3410

 -------------------------------------------------------------------------------
                             SWR1 OUTPUT PRINT TIMES
                        STRESS PERIOD   25   TIME STEP  3410
 --------------- --------------- --------------- --------------- ---------------
     0.49560E+06                                                                
 -------------------------------------------------------------------------------
 
 SOLVING FOR HEAD 
 INITIAL HNEW IS AN EXACT SOLUTION.

 NO OUTPUT CONTROL FOR STRESS PERIOD   25   TIME STEP 3411

 -------------------------------------------------------------------------------
                             SWR1 OUTPUT PRINT TIMES
                        STRESS PERIOD   25   TIME STEP  3411
 --------------- --------------- --------------- --------------- ---------------
     0.49572E+06                                                                
 -------------------------------------------------------------------------------
 
 SOLVING FOR HEAD 
 INITIAL HNEW IS AN EXACT SOLUTION.

 NO OUTPUT CONTROL FOR STRESS PERIOD   25   TIME STEP 3412

 -------------------------------------------------------------------------------
                             SWR1 OUTPUT PRINT TIMES
                        STRESS PERIOD   25   TIME STEP  3412
 --------------- --------------- --------------- --------------- ---------------
     0.49584E+06                                                                
 -------------------------------------------------------------------------------
 
 SOLVING FOR HEAD 
 INITIAL HNEW IS AN EXACT SOLUTION.

 NO OUTPUT CONTROL FOR STRESS PERIOD   25   TIME STEP 3413

 -------------------------------------------------------------------------------
                             SWR1 OUTPUT PRINT TIMES
                        STRESS PERIOD   25   TIME STEP  3413
 --------------- --------------- --------------- --------------- ---------------
     0.49596E+06                                                                
 -------------------------------------------------------------------------------
 
 SOLVING FOR HEAD 
 INITIAL HNEW IS AN EXACT SOLUTION.

 NO OUTPUT CONTROL FOR STRESS PERIOD   25   TIME STEP 3414

 -------------------------------------------------------------------------------
                             SWR1 OUTPUT PRINT TIMES
                        STRESS PERIOD   25   TIME STEP  3414
 --------------- --------------- --------------- --------------- ---------------
     0.49608E+06                                                                
 -------------------------------------------------------------------------------
 
 SOLVING FOR HEAD 
 INITIAL HNEW IS AN EXACT SOLUTION.

 NO OUTPUT CONTROL FOR STRESS PERIOD   25   TIME STEP 3415

 -------------------------------------------------------------------------------
                             SWR1 OUTPUT PRINT TIMES
                        STRESS PERIOD   25   TIME STEP  3415
 --------------- --------------- --------------- --------------- ---------------
     0.49620E+06                                                                
 -------------------------------------------------------------------------------
 
 SOLVING FOR HEAD 
 INITIAL HNEW IS AN EXACT SOLUTION.

 NO OUTPUT CONTROL FOR STRESS PERIOD   25   TIME STEP 3416

 -------------------------------------------------------------------------------
                             SWR1 OUTPUT PRINT TIMES
                        STRESS PERIOD   25   TIME STEP  3416
 --------------- --------------- --------------- --------------- ---------------
     0.49632E+06                                                                
 -------------------------------------------------------------------------------
 
 SOLVING FOR HEAD 
 INITIAL HNEW IS AN EXACT SOLUTION.

 NO OUTPUT CONTROL FOR STRESS PERIOD   25   TIME STEP 3417

 -------------------------------------------------------------------------------
                             SWR1 OUTPUT PRINT TIMES
                        STRESS PERIOD   25   TIME STEP  3417
 --------------- --------------- --------------- --------------- ---------------
     0.49644E+06                                                                
 -------------------------------------------------------------------------------
 
 SOLVING FOR HEAD 
 INITIAL HNEW IS AN EXACT SOLUTION.

 NO OUTPUT CONTROL FOR STRESS PERIOD   25   TIME STEP 3418

 -------------------------------------------------------------------------------
                             SWR1 OUTPUT PRINT TIMES
                        STRESS PERIOD   25   TIME STEP  3418
 --------------- --------------- --------------- --------------- ---------------
     0.49656E+06                                                                
 -------------------------------------------------------------------------------
 
 SOLVING FOR HEAD 
 INITIAL HNEW IS AN EXACT SOLUTION.

 NO OUTPUT CONTROL FOR STRESS PERIOD   25   TIME STEP 3419

 -------------------------------------------------------------------------------
                             SWR1 OUTPUT PRINT TIMES
                        STRESS PERIOD   25   TIME STEP  3419
 --------------- --------------- --------------- --------------- ---------------
     0.49668E+06                                                                
 -------------------------------------------------------------------------------
 
 SOLVING FOR HEAD 
 INITIAL HNEW IS AN EXACT SOLUTION.

 NO OUTPUT CONTROL FOR STRESS PERIOD   25   TIME STEP 3420

 -------------------------------------------------------------------------------
                             SWR1 OUTPUT PRINT TIMES
                        STRESS PERIOD   25   TIME STEP  3420
 --------------- --------------- --------------- --------------- ---------------
     0.49680E+06                                                                
 -------------------------------------------------------------------------------
 
 SOLVING FOR HEAD 
 INITIAL HNEW IS AN EXACT SOLUTION.

 NO OUTPUT CONTROL FOR STRESS PERIOD   25   TIME STEP 3421

 -------------------------------------------------------------------------------
                             SWR1 OUTPUT PRINT TIMES
                        STRESS PERIOD   25   TIME STEP  3421
 --------------- --------------- --------------- --------------- ---------------
     0.49692E+06                                                                
 -------------------------------------------------------------------------------
 
 SOLVING FOR HEAD 
 INITIAL HNEW IS AN EXACT SOLUTION.

 NO OUTPUT CONTROL FOR STRESS PERIOD   25   TIME STEP 3422

 -------------------------------------------------------------------------------
                             SWR1 OUTPUT PRINT TIMES
                        STRESS PERIOD   25   TIME STEP  3422
 --------------- --------------- --------------- --------------- ---------------
     0.49704E+06                                                                
 -------------------------------------------------------------------------------
 
 SOLVING FOR HEAD 
 INITIAL HNEW IS AN EXACT SOLUTION.

 NO OUTPUT CONTROL FOR STRESS PERIOD   25   TIME STEP 3423

 -------------------------------------------------------------------------------
                             SWR1 OUTPUT PRINT TIMES
                        STRESS PERIOD   25   TIME STEP  3423
 --------------- --------------- --------------- --------------- ---------------
     0.49716E+06                                                                
 -------------------------------------------------------------------------------
 
 SOLVING FOR HEAD 
 INITIAL HNEW IS AN EXACT SOLUTION.

 NO OUTPUT CONTROL FOR STRESS PERIOD   25   TIME STEP 3424

 -------------------------------------------------------------------------------
                             SWR1 OUTPUT PRINT TIMES
                        STRESS PERIOD   25   TIME STEP  3424
 --------------- --------------- --------------- --------------- ---------------
     0.49728E+06                                                                
 -------------------------------------------------------------------------------
 
 SOLVING FOR HEAD 
 INITIAL HNEW IS AN EXACT SOLUTION.

 NO OUTPUT CONTROL FOR STRESS PERIOD   25   TIME STEP 3425

 -------------------------------------------------------------------------------
                             SWR1 OUTPUT PRINT TIMES
                        STRESS PERIOD   25   TIME STEP  3425
 --------------- --------------- --------------- --------------- ---------------
     0.49740E+06                                                                
 -------------------------------------------------------------------------------
 
 SOLVING FOR HEAD 
 INITIAL HNEW IS AN EXACT SOLUTION.

 NO OUTPUT CONTROL FOR STRESS PERIOD   25   TIME STEP 3426

 -------------------------------------------------------------------------------
                             SWR1 OUTPUT PRINT TIMES
                        STRESS PERIOD   25   TIME STEP  3426
 --------------- --------------- --------------- --------------- ---------------
     0.49752E+06                                                                
 -------------------------------------------------------------------------------
 
 SOLVING FOR HEAD 
 INITIAL HNEW IS AN EXACT SOLUTION.

 NO OUTPUT CONTROL FOR STRESS PERIOD   25   TIME STEP 3427

 -------------------------------------------------------------------------------
                             SWR1 OUTPUT PRINT TIMES
                        STRESS PERIOD   25   TIME STEP  3427
 --------------- --------------- --------------- --------------- ---------------
     0.49764E+06                                                                
 -------------------------------------------------------------------------------
 
 SOLVING FOR HEAD 
 INITIAL HNEW IS AN EXACT SOLUTION.

 NO OUTPUT CONTROL FOR STRESS PERIOD   25   TIME STEP 3428

 -------------------------------------------------------------------------------
                             SWR1 OUTPUT PRINT TIMES
                        STRESS PERIOD   25   TIME STEP  3428
 --------------- --------------- --------------- --------------- ---------------
     0.49776E+06                                                                
 -------------------------------------------------------------------------------
 
 SOLVING FOR HEAD 
 INITIAL HNEW IS AN EXACT SOLUTION.

 NO OUTPUT CONTROL FOR STRESS PERIOD   25   TIME STEP 3429

 -------------------------------------------------------------------------------
                             SWR1 OUTPUT PRINT TIMES
                        STRESS PERIOD   25   TIME STEP  3429
 --------------- --------------- --------------- --------------- ---------------
     0.49788E+06                                                                
 -------------------------------------------------------------------------------
 
 SOLVING FOR HEAD 
 INITIAL HNEW IS AN EXACT SOLUTION.

 NO OUTPUT CONTROL FOR STRESS PERIOD   25   TIME STEP 3430

 -------------------------------------------------------------------------------
                             SWR1 OUTPUT PRINT TIMES
                        STRESS PERIOD   25   TIME STEP  3430
 --------------- --------------- --------------- --------------- ---------------
     0.49800E+06                                                                
 -------------------------------------------------------------------------------
 
 SOLVING FOR HEAD 
 INITIAL HNEW IS AN EXACT SOLUTION.

 NO OUTPUT CONTROL FOR STRESS PERIOD   25   TIME STEP 3431

 -------------------------------------------------------------------------------
                             SWR1 OUTPUT PRINT TIMES
                        STRESS PERIOD   25   TIME STEP  3431
 --------------- --------------- --------------- --------------- ---------------
     0.49812E+06                                                                
 -------------------------------------------------------------------------------
 
 SOLVING FOR HEAD 
 INITIAL HNEW IS AN EXACT SOLUTION.

 NO OUTPUT CONTROL FOR STRESS PERIOD   25   TIME STEP 3432

 -------------------------------------------------------------------------------
                             SWR1 OUTPUT PRINT TIMES
                        STRESS PERIOD   25   TIME STEP  3432
 --------------- --------------- --------------- --------------- ---------------
     0.49824E+06                                                                
 -------------------------------------------------------------------------------
 
 SOLVING FOR HEAD 
 INITIAL HNEW IS AN EXACT SOLUTION.

 NO OUTPUT CONTROL FOR STRESS PERIOD   25   TIME STEP 3433

 -------------------------------------------------------------------------------
                             SWR1 OUTPUT PRINT TIMES
                        STRESS PERIOD   25   TIME STEP  3433
 --------------- --------------- --------------- --------------- ---------------
     0.49836E+06                                                                
 -------------------------------------------------------------------------------
 
 SOLVING FOR HEAD 
 INITIAL HNEW IS AN EXACT SOLUTION.

 NO OUTPUT CONTROL FOR STRESS PERIOD   25   TIME STEP 3434

 -------------------------------------------------------------------------------
                             SWR1 OUTPUT PRINT TIMES
                        STRESS PERIOD   25   TIME STEP  3434
 --------------- --------------- --------------- --------------- ---------------
     0.49848E+06                                                                
 -------------------------------------------------------------------------------
 
 SOLVING FOR HEAD 
 INITIAL HNEW IS AN EXACT SOLUTION.

 NO OUTPUT CONTROL FOR STRESS PERIOD   25   TIME STEP 3435

 -------------------------------------------------------------------------------
                             SWR1 OUTPUT PRINT TIMES
                        STRESS PERIOD   25   TIME STEP  3435
 --------------- --------------- --------------- --------------- ---------------
     0.49860E+06                                                                
 -------------------------------------------------------------------------------
 
 SOLVING FOR HEAD 
 INITIAL HNEW IS AN EXACT SOLUTION.

 NO OUTPUT CONTROL FOR STRESS PERIOD   25   TIME STEP 3436

 -------------------------------------------------------------------------------
                             SWR1 OUTPUT PRINT TIMES
                        STRESS PERIOD   25   TIME STEP  3436
 --------------- --------------- --------------- --------------- ---------------
     0.49872E+06                                                                
 -------------------------------------------------------------------------------
 
 SOLVING FOR HEAD 
 INITIAL HNEW IS AN EXACT SOLUTION.

 NO OUTPUT CONTROL FOR STRESS PERIOD   25   TIME STEP 3437

 -------------------------------------------------------------------------------
                             SWR1 OUTPUT PRINT TIMES
                        STRESS PERIOD   25   TIME STEP  3437
 --------------- --------------- --------------- --------------- ---------------
     0.49884E+06                                                                
 -------------------------------------------------------------------------------
 
 SOLVING FOR HEAD 
 INITIAL HNEW IS AN EXACT SOLUTION.

 NO OUTPUT CONTROL FOR STRESS PERIOD   25   TIME STEP 3438

 -------------------------------------------------------------------------------
                             SWR1 OUTPUT PRINT TIMES
                        STRESS PERIOD   25   TIME STEP  3438
 --------------- --------------- --------------- --------------- ---------------
     0.49896E+06                                                                
 -------------------------------------------------------------------------------
 
 SOLVING FOR HEAD 
 INITIAL HNEW IS AN EXACT SOLUTION.

 NO OUTPUT CONTROL FOR STRESS PERIOD   25   TIME STEP 3439

 -------------------------------------------------------------------------------
                             SWR1 OUTPUT PRINT TIMES
                        STRESS PERIOD   25   TIME STEP  3439
 --------------- --------------- --------------- --------------- ---------------
     0.49908E+06                                                                
 -------------------------------------------------------------------------------
 
 SOLVING FOR HEAD 
 INITIAL HNEW IS AN EXACT SOLUTION.

 NO OUTPUT CONTROL FOR STRESS PERIOD   25   TIME STEP 3440

 -------------------------------------------------------------------------------
                             SWR1 OUTPUT PRINT TIMES
                        STRESS PERIOD   25   TIME STEP  3440
 --------------- --------------- --------------- --------------- ---------------
     0.49920E+06                                                                
 -------------------------------------------------------------------------------
 
 SOLVING FOR HEAD 
 INITIAL HNEW IS AN EXACT SOLUTION.

 NO OUTPUT CONTROL FOR STRESS PERIOD   25   TIME STEP 3441

 -------------------------------------------------------------------------------
                             SWR1 OUTPUT PRINT TIMES
                        STRESS PERIOD   25   TIME STEP  3441
 --------------- --------------- --------------- --------------- ---------------
     0.49932E+06                                                                
 -------------------------------------------------------------------------------
 
 SOLVING FOR HEAD 
 INITIAL HNEW IS AN EXACT SOLUTION.

 NO OUTPUT CONTROL FOR STRESS PERIOD   25   TIME STEP 3442

 -------------------------------------------------------------------------------
                             SWR1 OUTPUT PRINT TIMES
                        STRESS PERIOD   25   TIME STEP  3442
 --------------- --------------- --------------- --------------- ---------------
     0.49944E+06                                                                
 -------------------------------------------------------------------------------
 
 SOLVING FOR HEAD 
 INITIAL HNEW IS AN EXACT SOLUTION.

 NO OUTPUT CONTROL FOR STRESS PERIOD   25   TIME STEP 3443

 -------------------------------------------------------------------------------
                             SWR1 OUTPUT PRINT TIMES
                        STRESS PERIOD   25   TIME STEP  3443
 --------------- --------------- --------------- --------------- ---------------
     0.49956E+06                                                                
 -------------------------------------------------------------------------------
 
 SOLVING FOR HEAD 
 INITIAL HNEW IS AN EXACT SOLUTION.

 NO OUTPUT CONTROL FOR STRESS PERIOD   25   TIME STEP 3444

 -------------------------------------------------------------------------------
                             SWR1 OUTPUT PRINT TIMES
                        STRESS PERIOD   25   TIME STEP  3444
 --------------- --------------- --------------- --------------- ---------------
     0.49968E+06                                                                
 -------------------------------------------------------------------------------
 
 SOLVING FOR HEAD 
 INITIAL HNEW IS AN EXACT SOLUTION.

 NO OUTPUT CONTROL FOR STRESS PERIOD   25   TIME STEP 3445

 -------------------------------------------------------------------------------
                             SWR1 OUTPUT PRINT TIMES
                        STRESS PERIOD   25   TIME STEP  3445
 --------------- --------------- --------------- --------------- ---------------
     0.49980E+06                                                                
 -------------------------------------------------------------------------------
 
 SOLVING FOR HEAD 
 INITIAL HNEW IS AN EXACT SOLUTION.

 NO OUTPUT CONTROL FOR STRESS PERIOD   25   TIME STEP 3446

 -------------------------------------------------------------------------------
                             SWR1 OUTPUT PRINT TIMES
                        STRESS PERIOD   25   TIME STEP  3446
 --------------- --------------- --------------- --------------- ---------------
     0.49992E+06                                                                
 -------------------------------------------------------------------------------
 
 SOLVING FOR HEAD 
 INITIAL HNEW IS AN EXACT SOLUTION.

 NO OUTPUT CONTROL FOR STRESS PERIOD   25   TIME STEP 3447

 -------------------------------------------------------------------------------
                             SWR1 OUTPUT PRINT TIMES
                        STRESS PERIOD   25   TIME STEP  3447
 --------------- --------------- --------------- --------------- ---------------
     0.50004E+06                                                                
 -------------------------------------------------------------------------------
 
 SOLVING FOR HEAD 
 INITIAL HNEW IS AN EXACT SOLUTION.

 NO OUTPUT CONTROL FOR STRESS PERIOD   25   TIME STEP 3448

 -------------------------------------------------------------------------------
                             SWR1 OUTPUT PRINT TIMES
                        STRESS PERIOD   25   TIME STEP  3448
 --------------- --------------- --------------- --------------- ---------------
     0.50016E+06                                                                
 -------------------------------------------------------------------------------
 
 SOLVING FOR HEAD 
 INITIAL HNEW IS AN EXACT SOLUTION.

 NO OUTPUT CONTROL FOR STRESS PERIOD   25   TIME STEP 3449

 -------------------------------------------------------------------------------
                             SWR1 OUTPUT PRINT TIMES
                        STRESS PERIOD   25   TIME STEP  3449
 --------------- --------------- --------------- --------------- ---------------
     0.50028E+06                                                                
 -------------------------------------------------------------------------------
 
 SOLVING FOR HEAD 
 INITIAL HNEW IS AN EXACT SOLUTION.

 NO OUTPUT CONTROL FOR STRESS PERIOD   25   TIME STEP 3450

 -------------------------------------------------------------------------------
                             SWR1 OUTPUT PRINT TIMES
                        STRESS PERIOD   25   TIME STEP  3450
 --------------- --------------- --------------- --------------- ---------------
     0.50040E+06                                                                
 -------------------------------------------------------------------------------
 
 SOLVING FOR HEAD 
 INITIAL HNEW IS AN EXACT SOLUTION.

 NO OUTPUT CONTROL FOR STRESS PERIOD   25   TIME STEP 3451

 -------------------------------------------------------------------------------
                             SWR1 OUTPUT PRINT TIMES
                        STRESS PERIOD   25   TIME STEP  3451
 --------------- --------------- --------------- --------------- ---------------
     0.50052E+06                                                                
 -------------------------------------------------------------------------------
 
 SOLVING FOR HEAD 
 INITIAL HNEW IS AN EXACT SOLUTION.

 NO OUTPUT CONTROL FOR STRESS PERIOD   25   TIME STEP 3452

 -------------------------------------------------------------------------------
                             SWR1 OUTPUT PRINT TIMES
                        STRESS PERIOD   25   TIME STEP  3452
 --------------- --------------- --------------- --------------- ---------------
     0.50064E+06                                                                
 -------------------------------------------------------------------------------
 
 SOLVING FOR HEAD 
 INITIAL HNEW IS AN EXACT SOLUTION.

 NO OUTPUT CONTROL FOR STRESS PERIOD   25   TIME STEP 3453

 -------------------------------------------------------------------------------
                             SWR1 OUTPUT PRINT TIMES
                        STRESS PERIOD   25   TIME STEP  3453
 --------------- --------------- --------------- --------------- ---------------
     0.50076E+06                                                                
 -------------------------------------------------------------------------------
 
 SOLVING FOR HEAD 
 INITIAL HNEW IS AN EXACT SOLUTION.

 NO OUTPUT CONTROL FOR STRESS PERIOD   25   TIME STEP 3454

 -------------------------------------------------------------------------------
                             SWR1 OUTPUT PRINT TIMES
                        STRESS PERIOD   25   TIME STEP  3454
 --------------- --------------- --------------- --------------- ---------------
     0.50088E+06                                                                
 -------------------------------------------------------------------------------
 
 SOLVING FOR HEAD 
 INITIAL HNEW IS AN EXACT SOLUTION.

 NO OUTPUT CONTROL FOR STRESS PERIOD   25   TIME STEP 3455

 -------------------------------------------------------------------------------
                             SWR1 OUTPUT PRINT TIMES
                        STRESS PERIOD   25   TIME STEP  3455
 --------------- --------------- --------------- --------------- ---------------
     0.50100E+06                                                                
 -------------------------------------------------------------------------------
 
 SOLVING FOR HEAD 
 INITIAL HNEW IS AN EXACT SOLUTION.

 NO OUTPUT CONTROL FOR STRESS PERIOD   25   TIME STEP 3456

 -------------------------------------------------------------------------------
                             SWR1 OUTPUT PRINT TIMES
                        STRESS PERIOD   25   TIME STEP  3456
 --------------- --------------- --------------- --------------- ---------------
     0.50112E+06                                                                
 -------------------------------------------------------------------------------
 
 SOLVING FOR HEAD 
 INITIAL HNEW IS AN EXACT SOLUTION.

 NO OUTPUT CONTROL FOR STRESS PERIOD   25   TIME STEP 3457

 -------------------------------------------------------------------------------
                             SWR1 OUTPUT PRINT TIMES
                        STRESS PERIOD   25   TIME STEP  3457
 --------------- --------------- --------------- --------------- ---------------
     0.50124E+06                                                                
 -------------------------------------------------------------------------------
 
 SOLVING FOR HEAD 
 INITIAL HNEW IS AN EXACT SOLUTION.

 NO OUTPUT CONTROL FOR STRESS PERIOD   25   TIME STEP 3458

 -------------------------------------------------------------------------------
                             SWR1 OUTPUT PRINT TIMES
                        STRESS PERIOD   25   TIME STEP  3458
 --------------- --------------- --------------- --------------- ---------------
     0.50136E+06                                                                
 -------------------------------------------------------------------------------
 
 SOLVING FOR HEAD 
 INITIAL HNEW IS AN EXACT SOLUTION.

 NO OUTPUT CONTROL FOR STRESS PERIOD   25   TIME STEP 3459

 -------------------------------------------------------------------------------
                             SWR1 OUTPUT PRINT TIMES
                        STRESS PERIOD   25   TIME STEP  3459
 --------------- --------------- --------------- --------------- ---------------
     0.50148E+06                                                                
 -------------------------------------------------------------------------------
 
 SOLVING FOR HEAD 
 INITIAL HNEW IS AN EXACT SOLUTION.

 NO OUTPUT CONTROL FOR STRESS PERIOD   25   TIME STEP 3460

 -------------------------------------------------------------------------------
                             SWR1 OUTPUT PRINT TIMES
                        STRESS PERIOD   25   TIME STEP  3460
 --------------- --------------- --------------- --------------- ---------------
     0.50160E+06                                                                
 -------------------------------------------------------------------------------
 
 SOLVING FOR HEAD 
 INITIAL HNEW IS AN EXACT SOLUTION.

 NO OUTPUT CONTROL FOR STRESS PERIOD   25   TIME STEP 3461

 -------------------------------------------------------------------------------
                             SWR1 OUTPUT PRINT TIMES
                        STRESS PERIOD   25   TIME STEP  3461
 --------------- --------------- --------------- --------------- ---------------
     0.50172E+06                                                                
 -------------------------------------------------------------------------------
 
 SOLVING FOR HEAD 
 INITIAL HNEW IS AN EXACT SOLUTION.

 NO OUTPUT CONTROL FOR STRESS PERIOD   25   TIME STEP 3462

 -------------------------------------------------------------------------------
                             SWR1 OUTPUT PRINT TIMES
                        STRESS PERIOD   25   TIME STEP  3462
 --------------- --------------- --------------- --------------- ---------------
     0.50184E+06                                                                
 -------------------------------------------------------------------------------
 
 SOLVING FOR HEAD 
 INITIAL HNEW IS AN EXACT SOLUTION.

 NO OUTPUT CONTROL FOR STRESS PERIOD   25   TIME STEP 3463

 -------------------------------------------------------------------------------
                             SWR1 OUTPUT PRINT TIMES
                        STRESS PERIOD   25   TIME STEP  3463
 --------------- --------------- --------------- --------------- ---------------
     0.50196E+06                                                                
 -------------------------------------------------------------------------------
 
 SOLVING FOR HEAD 
 INITIAL HNEW IS AN EXACT SOLUTION.

 NO OUTPUT CONTROL FOR STRESS PERIOD   25   TIME STEP 3464

 -------------------------------------------------------------------------------
                             SWR1 OUTPUT PRINT TIMES
                        STRESS PERIOD   25   TIME STEP  3464
 --------------- --------------- --------------- --------------- ---------------
     0.50208E+06                                                                
 -------------------------------------------------------------------------------
 
 SOLVING FOR HEAD 
 INITIAL HNEW IS AN EXACT SOLUTION.

 NO OUTPUT CONTROL FOR STRESS PERIOD   25   TIME STEP 3465

 -------------------------------------------------------------------------------
                             SWR1 OUTPUT PRINT TIMES
                        STRESS PERIOD   25   TIME STEP  3465
 --------------- --------------- --------------- --------------- ---------------
     0.50220E+06                                                                
 -------------------------------------------------------------------------------
 
 SOLVING FOR HEAD 
 INITIAL HNEW IS AN EXACT SOLUTION.

 NO OUTPUT CONTROL FOR STRESS PERIOD   25   TIME STEP 3466

 -------------------------------------------------------------------------------
                             SWR1 OUTPUT PRINT TIMES
                        STRESS PERIOD   25   TIME STEP  3466
 --------------- --------------- --------------- --------------- ---------------
     0.50232E+06                                                                
 -------------------------------------------------------------------------------
 
 SOLVING FOR HEAD 
 INITIAL HNEW IS AN EXACT SOLUTION.

 NO OUTPUT CONTROL FOR STRESS PERIOD   25   TIME STEP 3467

 -------------------------------------------------------------------------------
                             SWR1 OUTPUT PRINT TIMES
                        STRESS PERIOD   25   TIME STEP  3467
 --------------- --------------- --------------- --------------- ---------------
     0.50244E+06                                                                
 -------------------------------------------------------------------------------
 
 SOLVING FOR HEAD 
 INITIAL HNEW IS AN EXACT SOLUTION.

 NO OUTPUT CONTROL FOR STRESS PERIOD   25   TIME STEP 3468

 -------------------------------------------------------------------------------
                             SWR1 OUTPUT PRINT TIMES
                        STRESS PERIOD   25   TIME STEP  3468
 --------------- --------------- --------------- --------------- ---------------
     0.50256E+06                                                                
 -------------------------------------------------------------------------------
 
 SOLVING FOR HEAD 
 INITIAL HNEW IS AN EXACT SOLUTION.

 NO OUTPUT CONTROL FOR STRESS PERIOD   25   TIME STEP 3469

 -------------------------------------------------------------------------------
                             SWR1 OUTPUT PRINT TIMES
                        STRESS PERIOD   25   TIME STEP  3469
 --------------- --------------- --------------- --------------- ---------------
     0.50268E+06                                                                
 -------------------------------------------------------------------------------
 
 SOLVING FOR HEAD 
 INITIAL HNEW IS AN EXACT SOLUTION.

 NO OUTPUT CONTROL FOR STRESS PERIOD   25   TIME STEP 3470

 -------------------------------------------------------------------------------
                             SWR1 OUTPUT PRINT TIMES
                        STRESS PERIOD   25   TIME STEP  3470
 --------------- --------------- --------------- --------------- ---------------
     0.50280E+06                                                                
 -------------------------------------------------------------------------------
 
 SOLVING FOR HEAD 
 INITIAL HNEW IS AN EXACT SOLUTION.

 NO OUTPUT CONTROL FOR STRESS PERIOD   25   TIME STEP 3471

 -------------------------------------------------------------------------------
                             SWR1 OUTPUT PRINT TIMES
                        STRESS PERIOD   25   TIME STEP  3471
 --------------- --------------- --------------- --------------- ---------------
     0.50292E+06                                                                
 -------------------------------------------------------------------------------
 
 SOLVING FOR HEAD 
 INITIAL HNEW IS AN EXACT SOLUTION.

 NO OUTPUT CONTROL FOR STRESS PERIOD   25   TIME STEP 3472

 -------------------------------------------------------------------------------
                             SWR1 OUTPUT PRINT TIMES
                        STRESS PERIOD   25   TIME STEP  3472
 --------------- --------------- --------------- --------------- ---------------
     0.50304E+06                                                                
 -------------------------------------------------------------------------------
 
 SOLVING FOR HEAD 
 INITIAL HNEW IS AN EXACT SOLUTION.

 NO OUTPUT CONTROL FOR STRESS PERIOD   25   TIME STEP 3473

 -------------------------------------------------------------------------------
                             SWR1 OUTPUT PRINT TIMES
                        STRESS PERIOD   25   TIME STEP  3473
 --------------- --------------- --------------- --------------- ---------------
     0.50316E+06                                                                
 -------------------------------------------------------------------------------
 
 SOLVING FOR HEAD 
 INITIAL HNEW IS AN EXACT SOLUTION.

 NO OUTPUT CONTROL FOR STRESS PERIOD   25   TIME STEP 3474

 -------------------------------------------------------------------------------
                             SWR1 OUTPUT PRINT TIMES
                        STRESS PERIOD   25   TIME STEP  3474
 --------------- --------------- --------------- --------------- ---------------
     0.50328E+06                                                                
 -------------------------------------------------------------------------------
 
 SOLVING FOR HEAD 
 INITIAL HNEW IS AN EXACT SOLUTION.

 NO OUTPUT CONTROL FOR STRESS PERIOD   25   TIME STEP 3475

 -------------------------------------------------------------------------------
                             SWR1 OUTPUT PRINT TIMES
                        STRESS PERIOD   25   TIME STEP  3475
 --------------- --------------- --------------- --------------- ---------------
     0.50340E+06                                                                
 -------------------------------------------------------------------------------
 
 SOLVING FOR HEAD 
 INITIAL HNEW IS AN EXACT SOLUTION.

 NO OUTPUT CONTROL FOR STRESS PERIOD   25   TIME STEP 3476

 -------------------------------------------------------------------------------
                             SWR1 OUTPUT PRINT TIMES
                        STRESS PERIOD   25   TIME STEP  3476
 --------------- --------------- --------------- --------------- ---------------
     0.50352E+06                                                                
 -------------------------------------------------------------------------------
 
 SOLVING FOR HEAD 
 INITIAL HNEW IS AN EXACT SOLUTION.

 NO OUTPUT CONTROL FOR STRESS PERIOD   25   TIME STEP 3477

 -------------------------------------------------------------------------------
                             SWR1 OUTPUT PRINT TIMES
                        STRESS PERIOD   25   TIME STEP  3477
 --------------- --------------- --------------- --------------- ---------------
     0.50364E+06                                                                
 -------------------------------------------------------------------------------
 
 SOLVING FOR HEAD 
 INITIAL HNEW IS AN EXACT SOLUTION.

 NO OUTPUT CONTROL FOR STRESS PERIOD   25   TIME STEP 3478

 -------------------------------------------------------------------------------
                             SWR1 OUTPUT PRINT TIMES
                        STRESS PERIOD   25   TIME STEP  3478
 --------------- --------------- --------------- --------------- ---------------
     0.50376E+06                                                                
 -------------------------------------------------------------------------------
 
 SOLVING FOR HEAD 
 INITIAL HNEW IS AN EXACT SOLUTION.

 NO OUTPUT CONTROL FOR STRESS PERIOD   25   TIME STEP 3479

 -------------------------------------------------------------------------------
                             SWR1 OUTPUT PRINT TIMES
                        STRESS PERIOD   25   TIME STEP  3479
 --------------- --------------- --------------- --------------- ---------------
     0.50388E+06                                                                
 -------------------------------------------------------------------------------
 
 SOLVING FOR HEAD 
 INITIAL HNEW IS AN EXACT SOLUTION.

 NO OUTPUT CONTROL FOR STRESS PERIOD   25   TIME STEP 3480

 -------------------------------------------------------------------------------
                             SWR1 OUTPUT PRINT TIMES
                        STRESS PERIOD   25   TIME STEP  3480
 --------------- --------------- --------------- --------------- ---------------
     0.50400E+06                                                                
 -------------------------------------------------------------------------------
 
 SOLVING FOR HEAD 
 INITIAL HNEW IS AN EXACT SOLUTION.

 NO OUTPUT CONTROL FOR STRESS PERIOD   25   TIME STEP 3481

 -------------------------------------------------------------------------------
                             SWR1 OUTPUT PRINT TIMES
                        STRESS PERIOD   25   TIME STEP  3481
 --------------- --------------- --------------- --------------- ---------------
     0.50412E+06                                                                
 -------------------------------------------------------------------------------
 
 SOLVING FOR HEAD 
 INITIAL HNEW IS AN EXACT SOLUTION.

 NO OUTPUT CONTROL FOR STRESS PERIOD   25   TIME STEP 3482

 -------------------------------------------------------------------------------
                             SWR1 OUTPUT PRINT TIMES
                        STRESS PERIOD   25   TIME STEP  3482
 --------------- --------------- --------------- --------------- ---------------
     0.50424E+06                                                                
 -------------------------------------------------------------------------------
 
 SOLVING FOR HEAD 
 INITIAL HNEW IS AN EXACT SOLUTION.

 NO OUTPUT CONTROL FOR STRESS PERIOD   25   TIME STEP 3483

 -------------------------------------------------------------------------------
                             SWR1 OUTPUT PRINT TIMES
                        STRESS PERIOD   25   TIME STEP  3483
 --------------- --------------- --------------- --------------- ---------------
     0.50436E+06                                                                
 -------------------------------------------------------------------------------
 
 SOLVING FOR HEAD 
 INITIAL HNEW IS AN EXACT SOLUTION.

 NO OUTPUT CONTROL FOR STRESS PERIOD   25   TIME STEP 3484

 -------------------------------------------------------------------------------
                             SWR1 OUTPUT PRINT TIMES
                        STRESS PERIOD   25   TIME STEP  3484
 --------------- --------------- --------------- --------------- ---------------
     0.50448E+06                                                                
 -------------------------------------------------------------------------------
 
 SOLVING FOR HEAD 
 INITIAL HNEW IS AN EXACT SOLUTION.

 NO OUTPUT CONTROL FOR STRESS PERIOD   25   TIME STEP 3485

 -------------------------------------------------------------------------------
                             SWR1 OUTPUT PRINT TIMES
                        STRESS PERIOD   25   TIME STEP  3485
 --------------- --------------- --------------- --------------- ---------------
     0.50460E+06                                                                
 -------------------------------------------------------------------------------
 
 SOLVING FOR HEAD 
 INITIAL HNEW IS AN EXACT SOLUTION.

 NO OUTPUT CONTROL FOR STRESS PERIOD   25   TIME STEP 3486

 -------------------------------------------------------------------------------
                             SWR1 OUTPUT PRINT TIMES
                        STRESS PERIOD   25   TIME STEP  3486
 --------------- --------------- --------------- --------------- ---------------
     0.50472E+06                                                                
 -------------------------------------------------------------------------------
 
 SOLVING FOR HEAD 
 INITIAL HNEW IS AN EXACT SOLUTION.

 NO OUTPUT CONTROL FOR STRESS PERIOD   25   TIME STEP 3487

 -------------------------------------------------------------------------------
                             SWR1 OUTPUT PRINT TIMES
                        STRESS PERIOD   25   TIME STEP  3487
 --------------- --------------- --------------- --------------- ---------------
     0.50484E+06                                                                
 -------------------------------------------------------------------------------
 
 SOLVING FOR HEAD 
 INITIAL HNEW IS AN EXACT SOLUTION.

 NO OUTPUT CONTROL FOR STRESS PERIOD   25   TIME STEP 3488

 -------------------------------------------------------------------------------
                             SWR1 OUTPUT PRINT TIMES
                        STRESS PERIOD   25   TIME STEP  3488
 --------------- --------------- --------------- --------------- ---------------
     0.50496E+06                                                                
 -------------------------------------------------------------------------------
 
 SOLVING FOR HEAD 
 INITIAL HNEW IS AN EXACT SOLUTION.

 NO OUTPUT CONTROL FOR STRESS PERIOD   25   TIME STEP 3489

 -------------------------------------------------------------------------------
                             SWR1 OUTPUT PRINT TIMES
                        STRESS PERIOD   25   TIME STEP  3489
 --------------- --------------- --------------- --------------- ---------------
     0.50508E+06                                                                
 -------------------------------------------------------------------------------
 
 SOLVING FOR HEAD 
 INITIAL HNEW IS AN EXACT SOLUTION.

 NO OUTPUT CONTROL FOR STRESS PERIOD   25   TIME STEP 3490

 -------------------------------------------------------------------------------
                             SWR1 OUTPUT PRINT TIMES
                        STRESS PERIOD   25   TIME STEP  3490
 --------------- --------------- --------------- --------------- ---------------
     0.50520E+06                                                                
 -------------------------------------------------------------------------------
 
 SOLVING FOR HEAD 
 INITIAL HNEW IS AN EXACT SOLUTION.

 NO OUTPUT CONTROL FOR STRESS PERIOD   25   TIME STEP 3491

 -------------------------------------------------------------------------------
                             SWR1 OUTPUT PRINT TIMES
                        STRESS PERIOD   25   TIME STEP  3491
 --------------- --------------- --------------- --------------- ---------------
     0.50532E+06                                                                
 -------------------------------------------------------------------------------
 
 SOLVING FOR HEAD 
 INITIAL HNEW IS AN EXACT SOLUTION.

 NO OUTPUT CONTROL FOR STRESS PERIOD   25   TIME STEP 3492

 -------------------------------------------------------------------------------
                             SWR1 OUTPUT PRINT TIMES
                        STRESS PERIOD   25   TIME STEP  3492
 --------------- --------------- --------------- --------------- ---------------
     0.50544E+06                                                                
 -------------------------------------------------------------------------------
 
 SOLVING FOR HEAD 
 INITIAL HNEW IS AN EXACT SOLUTION.

 NO OUTPUT CONTROL FOR STRESS PERIOD   25   TIME STEP 3493

 -------------------------------------------------------------------------------
                             SWR1 OUTPUT PRINT TIMES
                        STRESS PERIOD   25   TIME STEP  3493
 --------------- --------------- --------------- --------------- ---------------
     0.50556E+06                                                                
 -------------------------------------------------------------------------------
 
 SOLVING FOR HEAD 
 INITIAL HNEW IS AN EXACT SOLUTION.

 NO OUTPUT CONTROL FOR STRESS PERIOD   25   TIME STEP 3494

 -------------------------------------------------------------------------------
                             SWR1 OUTPUT PRINT TIMES
                        STRESS PERIOD   25   TIME STEP  3494
 --------------- --------------- --------------- --------------- ---------------
     0.50568E+06                                                                
 -------------------------------------------------------------------------------
 
 SOLVING FOR HEAD 
 INITIAL HNEW IS AN EXACT SOLUTION.

 NO OUTPUT CONTROL FOR STRESS PERIOD   25   TIME STEP 3495

 -------------------------------------------------------------------------------
                             SWR1 OUTPUT PRINT TIMES
                        STRESS PERIOD   25   TIME STEP  3495
 --------------- --------------- --------------- --------------- ---------------
     0.50580E+06                                                                
 -------------------------------------------------------------------------------
 
 SOLVING FOR HEAD 
 INITIAL HNEW IS AN EXACT SOLUTION.

 NO OUTPUT CONTROL FOR STRESS PERIOD   25   TIME STEP 3496

 -------------------------------------------------------------------------------
                             SWR1 OUTPUT PRINT TIMES
                        STRESS PERIOD   25   TIME STEP  3496
 --------------- --------------- --------------- --------------- ---------------
     0.50592E+06                                                                
 -------------------------------------------------------------------------------
 
 SOLVING FOR HEAD 
 INITIAL HNEW IS AN EXACT SOLUTION.

 NO OUTPUT CONTROL FOR STRESS PERIOD   25   TIME STEP 3497

 -------------------------------------------------------------------------------
                             SWR1 OUTPUT PRINT TIMES
                        STRESS PERIOD   25   TIME STEP  3497
 --------------- --------------- --------------- --------------- ---------------
     0.50604E+06                                                                
 -------------------------------------------------------------------------------
 
 SOLVING FOR HEAD 
 INITIAL HNEW IS AN EXACT SOLUTION.

 NO OUTPUT CONTROL FOR STRESS PERIOD   25   TIME STEP 3498

 -------------------------------------------------------------------------------
                             SWR1 OUTPUT PRINT TIMES
                        STRESS PERIOD   25   TIME STEP  3498
 --------------- --------------- --------------- --------------- ---------------
     0.50616E+06                                                                
 -------------------------------------------------------------------------------
 
 SOLVING FOR HEAD 
 INITIAL HNEW IS AN EXACT SOLUTION.

 NO OUTPUT CONTROL FOR STRESS PERIOD   25   TIME STEP 3499

 -------------------------------------------------------------------------------
                             SWR1 OUTPUT PRINT TIMES
                        STRESS PERIOD   25   TIME STEP  3499
 --------------- --------------- --------------- --------------- ---------------
     0.50628E+06                                                                
 -------------------------------------------------------------------------------
 
 SOLVING FOR HEAD 
 INITIAL HNEW IS AN EXACT SOLUTION.

 NO OUTPUT CONTROL FOR STRESS PERIOD   25   TIME STEP 3500

 -------------------------------------------------------------------------------
                             SWR1 OUTPUT PRINT TIMES
                        STRESS PERIOD   25   TIME STEP  3500
 --------------- --------------- --------------- --------------- ---------------
     0.50640E+06                                                                
 -------------------------------------------------------------------------------
 
 SOLVING FOR HEAD 
 INITIAL HNEW IS AN EXACT SOLUTION.

 NO OUTPUT CONTROL FOR STRESS PERIOD   25   TIME STEP 3501

 -------------------------------------------------------------------------------
                             SWR1 OUTPUT PRINT TIMES
                        STRESS PERIOD   25   TIME STEP  3501
 --------------- --------------- --------------- --------------- ---------------
     0.50652E+06                                                                
 -------------------------------------------------------------------------------
 
 SOLVING FOR HEAD 
 INITIAL HNEW IS AN EXACT SOLUTION.

 NO OUTPUT CONTROL FOR STRESS PERIOD   25   TIME STEP 3502

 -------------------------------------------------------------------------------
                             SWR1 OUTPUT PRINT TIMES
                        STRESS PERIOD   25   TIME STEP  3502
 --------------- --------------- --------------- --------------- ---------------
     0.50664E+06                                                                
 -------------------------------------------------------------------------------
 
 SOLVING FOR HEAD 
 INITIAL HNEW IS AN EXACT SOLUTION.

 NO OUTPUT CONTROL FOR STRESS PERIOD   25   TIME STEP 3503

 -------------------------------------------------------------------------------
                             SWR1 OUTPUT PRINT TIMES
                        STRESS PERIOD   25   TIME STEP  3503
 --------------- --------------- --------------- --------------- ---------------
     0.50676E+06                                                                
 -------------------------------------------------------------------------------
 
 SOLVING FOR HEAD 
 INITIAL HNEW IS AN EXACT SOLUTION.

 NO OUTPUT CONTROL FOR STRESS PERIOD   25   TIME STEP 3504

 -------------------------------------------------------------------------------
                             SWR1 OUTPUT PRINT TIMES
                        STRESS PERIOD   25   TIME STEP  3504
 --------------- --------------- --------------- --------------- ---------------
     0.50688E+06                                                                
 -------------------------------------------------------------------------------
 
 SOLVING FOR HEAD 
 INITIAL HNEW IS AN EXACT SOLUTION.

 NO OUTPUT CONTROL FOR STRESS PERIOD   25   TIME STEP 3505

 -------------------------------------------------------------------------------
                             SWR1 OUTPUT PRINT TIMES
                        STRESS PERIOD   25   TIME STEP  3505
 --------------- --------------- --------------- --------------- ---------------
     0.50700E+06                                                                
 -------------------------------------------------------------------------------
 
 SOLVING FOR HEAD 
 INITIAL HNEW IS AN EXACT SOLUTION.

 NO OUTPUT CONTROL FOR STRESS PERIOD   25   TIME STEP 3506

 -------------------------------------------------------------------------------
                             SWR1 OUTPUT PRINT TIMES
                        STRESS PERIOD   25   TIME STEP  3506
 --------------- --------------- --------------- --------------- ---------------
     0.50712E+06                                                                
 -------------------------------------------------------------------------------
 
 SOLVING FOR HEAD 
 INITIAL HNEW IS AN EXACT SOLUTION.

 NO OUTPUT CONTROL FOR STRESS PERIOD   25   TIME STEP 3507

 -------------------------------------------------------------------------------
                             SWR1 OUTPUT PRINT TIMES
                        STRESS PERIOD   25   TIME STEP  3507
 --------------- --------------- --------------- --------------- ---------------
     0.50724E+06                                                                
 -------------------------------------------------------------------------------
 
 SOLVING FOR HEAD 
 INITIAL HNEW IS AN EXACT SOLUTION.

 NO OUTPUT CONTROL FOR STRESS PERIOD   25   TIME STEP 3508

 -------------------------------------------------------------------------------
                             SWR1 OUTPUT PRINT TIMES
                        STRESS PERIOD   25   TIME STEP  3508
 --------------- --------------- --------------- --------------- ---------------
     0.50736E+06                                                                
 -------------------------------------------------------------------------------
 
 SOLVING FOR HEAD 
 INITIAL HNEW IS AN EXACT SOLUTION.

 NO OUTPUT CONTROL FOR STRESS PERIOD   25   TIME STEP 3509

 -------------------------------------------------------------------------------
                             SWR1 OUTPUT PRINT TIMES
                        STRESS PERIOD   25   TIME STEP  3509
 --------------- --------------- --------------- --------------- ---------------
     0.50748E+06                                                                
 -------------------------------------------------------------------------------
 
 SOLVING FOR HEAD 
 INITIAL HNEW IS AN EXACT SOLUTION.

 NO OUTPUT CONTROL FOR STRESS PERIOD   25   TIME STEP 3510

 -------------------------------------------------------------------------------
                             SWR1 OUTPUT PRINT TIMES
                        STRESS PERIOD   25   TIME STEP  3510
 --------------- --------------- --------------- --------------- ---------------
     0.50760E+06                                                                
 -------------------------------------------------------------------------------
 
 SOLVING FOR HEAD 
 INITIAL HNEW IS AN EXACT SOLUTION.

 NO OUTPUT CONTROL FOR STRESS PERIOD   25   TIME STEP 3511

 -------------------------------------------------------------------------------
                             SWR1 OUTPUT PRINT TIMES
                        STRESS PERIOD   25   TIME STEP  3511
 --------------- --------------- --------------- --------------- ---------------
     0.50772E+06                                                                
 -------------------------------------------------------------------------------
 
 SOLVING FOR HEAD 
 INITIAL HNEW IS AN EXACT SOLUTION.

 NO OUTPUT CONTROL FOR STRESS PERIOD   25   TIME STEP 3512

 -------------------------------------------------------------------------------
                             SWR1 OUTPUT PRINT TIMES
                        STRESS PERIOD   25   TIME STEP  3512
 --------------- --------------- --------------- --------------- ---------------
     0.50784E+06                                                                
 -------------------------------------------------------------------------------
 
 SOLVING FOR HEAD 
 INITIAL HNEW IS AN EXACT SOLUTION.

 NO OUTPUT CONTROL FOR STRESS PERIOD   25   TIME STEP 3513

 -------------------------------------------------------------------------------
                             SWR1 OUTPUT PRINT TIMES
                        STRESS PERIOD   25   TIME STEP  3513
 --------------- --------------- --------------- --------------- ---------------
     0.50796E+06                                                                
 -------------------------------------------------------------------------------
 
 SOLVING FOR HEAD 
 INITIAL HNEW IS AN EXACT SOLUTION.

 NO OUTPUT CONTROL FOR STRESS PERIOD   25   TIME STEP 3514

 -------------------------------------------------------------------------------
                             SWR1 OUTPUT PRINT TIMES
                        STRESS PERIOD   25   TIME STEP  3514
 --------------- --------------- --------------- --------------- ---------------
     0.50808E+06                                                                
 -------------------------------------------------------------------------------
 
 SOLVING FOR HEAD 
 INITIAL HNEW IS AN EXACT SOLUTION.

 NO OUTPUT CONTROL FOR STRESS PERIOD   25   TIME STEP 3515

 -------------------------------------------------------------------------------
                             SWR1 OUTPUT PRINT TIMES
                        STRESS PERIOD   25   TIME STEP  3515
 --------------- --------------- --------------- --------------- ---------------
     0.50820E+06                                                                
 -------------------------------------------------------------------------------
 
 SOLVING FOR HEAD 
 INITIAL HNEW IS AN EXACT SOLUTION.

 NO OUTPUT CONTROL FOR STRESS PERIOD   25   TIME STEP 3516

 -------------------------------------------------------------------------------
                             SWR1 OUTPUT PRINT TIMES
                        STRESS PERIOD   25   TIME STEP  3516
 --------------- --------------- --------------- --------------- ---------------
     0.50832E+06                                                                
 -------------------------------------------------------------------------------
 
 SOLVING FOR HEAD 
 INITIAL HNEW IS AN EXACT SOLUTION.

 NO OUTPUT CONTROL FOR STRESS PERIOD   25   TIME STEP 3517

 -------------------------------------------------------------------------------
                             SWR1 OUTPUT PRINT TIMES
                        STRESS PERIOD   25   TIME STEP  3517
 --------------- --------------- --------------- --------------- ---------------
     0.50844E+06                                                                
 -------------------------------------------------------------------------------
 
 SOLVING FOR HEAD 
 INITIAL HNEW IS AN EXACT SOLUTION.

 NO OUTPUT CONTROL FOR STRESS PERIOD   25   TIME STEP 3518

 -------------------------------------------------------------------------------
                             SWR1 OUTPUT PRINT TIMES
                        STRESS PERIOD   25   TIME STEP  3518
 --------------- --------------- --------------- --------------- ---------------
     0.50856E+06                                                                
 -------------------------------------------------------------------------------
 
 SOLVING FOR HEAD 
 INITIAL HNEW IS AN EXACT SOLUTION.

 NO OUTPUT CONTROL FOR STRESS PERIOD   25   TIME STEP 3519

 -------------------------------------------------------------------------------
                             SWR1 OUTPUT PRINT TIMES
                        STRESS PERIOD   25   TIME STEP  3519
 --------------- --------------- --------------- --------------- ---------------
     0.50868E+06                                                                
 -------------------------------------------------------------------------------
 
 SOLVING FOR HEAD 
 INITIAL HNEW IS AN EXACT SOLUTION.

 NO OUTPUT CONTROL FOR STRESS PERIOD   25   TIME STEP 3520

 -------------------------------------------------------------------------------
                             SWR1 OUTPUT PRINT TIMES
                        STRESS PERIOD   25   TIME STEP  3520
 --------------- --------------- --------------- --------------- ---------------
     0.50880E+06                                                                
 -------------------------------------------------------------------------------
 
 SOLVING FOR HEAD 
 INITIAL HNEW IS AN EXACT SOLUTION.

 NO OUTPUT CONTROL FOR STRESS PERIOD   25   TIME STEP 3521

 -------------------------------------------------------------------------------
                             SWR1 OUTPUT PRINT TIMES
                        STRESS PERIOD   25   TIME STEP  3521
 --------------- --------------- --------------- --------------- ---------------
     0.50892E+06                                                                
 -------------------------------------------------------------------------------
 
 SOLVING FOR HEAD 
 INITIAL HNEW IS AN EXACT SOLUTION.

 NO OUTPUT CONTROL FOR STRESS PERIOD   25   TIME STEP 3522

 -------------------------------------------------------------------------------
                             SWR1 OUTPUT PRINT TIMES
                        STRESS PERIOD   25   TIME STEP  3522
 --------------- --------------- --------------- --------------- ---------------
     0.50904E+06                                                                
 -------------------------------------------------------------------------------
 
 SOLVING FOR HEAD 
 INITIAL HNEW IS AN EXACT SOLUTION.

 NO OUTPUT CONTROL FOR STRESS PERIOD   25   TIME STEP 3523

 -------------------------------------------------------------------------------
                             SWR1 OUTPUT PRINT TIMES
                        STRESS PERIOD   25   TIME STEP  3523
 --------------- --------------- --------------- --------------- ---------------
     0.50916E+06                                                                
 -------------------------------------------------------------------------------
 
 SOLVING FOR HEAD 
 INITIAL HNEW IS AN EXACT SOLUTION.

 NO OUTPUT CONTROL FOR STRESS PERIOD   25   TIME STEP 3524

 -------------------------------------------------------------------------------
                             SWR1 OUTPUT PRINT TIMES
                        STRESS PERIOD   25   TIME STEP  3524
 --------------- --------------- --------------- --------------- ---------------
     0.50928E+06                                                                
 -------------------------------------------------------------------------------
 
 SOLVING FOR HEAD 
 INITIAL HNEW IS AN EXACT SOLUTION.

 NO OUTPUT CONTROL FOR STRESS PERIOD   25   TIME STEP 3525

 -------------------------------------------------------------------------------
                             SWR1 OUTPUT PRINT TIMES
                        STRESS PERIOD   25   TIME STEP  3525
 --------------- --------------- --------------- --------------- ---------------
     0.50940E+06                                                                
 -------------------------------------------------------------------------------
 
 SOLVING FOR HEAD 
 INITIAL HNEW IS AN EXACT SOLUTION.

 NO OUTPUT CONTROL FOR STRESS PERIOD   25   TIME STEP 3526

 -------------------------------------------------------------------------------
                             SWR1 OUTPUT PRINT TIMES
                        STRESS PERIOD   25   TIME STEP  3526
 --------------- --------------- --------------- --------------- ---------------
     0.50952E+06                                                                
 -------------------------------------------------------------------------------
 
 SOLVING FOR HEAD 
 INITIAL HNEW IS AN EXACT SOLUTION.

 NO OUTPUT CONTROL FOR STRESS PERIOD   25   TIME STEP 3527

 -------------------------------------------------------------------------------
                             SWR1 OUTPUT PRINT TIMES
                        STRESS PERIOD   25   TIME STEP  3527
 --------------- --------------- --------------- --------------- ---------------
     0.50964E+06                                                                
 -------------------------------------------------------------------------------
 
 SOLVING FOR HEAD 
 INITIAL HNEW IS AN EXACT SOLUTION.

 NO OUTPUT CONTROL FOR STRESS PERIOD   25   TIME STEP 3528

 -------------------------------------------------------------------------------
                             SWR1 OUTPUT PRINT TIMES
                        STRESS PERIOD   25   TIME STEP  3528
 --------------- --------------- --------------- --------------- ---------------
     0.50976E+06                                                                
 -------------------------------------------------------------------------------
 
 SOLVING FOR HEAD 
 INITIAL HNEW IS AN EXACT SOLUTION.

 NO OUTPUT CONTROL FOR STRESS PERIOD   25   TIME STEP 3529

 -------------------------------------------------------------------------------
                             SWR1 OUTPUT PRINT TIMES
                        STRESS PERIOD   25   TIME STEP  3529
 --------------- --------------- --------------- --------------- ---------------
     0.50988E+06                                                                
 -------------------------------------------------------------------------------
 
 SOLVING FOR HEAD 
 INITIAL HNEW IS AN EXACT SOLUTION.

 NO OUTPUT CONTROL FOR STRESS PERIOD   25   TIME STEP 3530

 -------------------------------------------------------------------------------
                             SWR1 OUTPUT PRINT TIMES
                        STRESS PERIOD   25   TIME STEP  3530
 --------------- --------------- --------------- --------------- ---------------
     0.51000E+06                                                                
 -------------------------------------------------------------------------------
 
 SOLVING FOR HEAD 
 INITIAL HNEW IS AN EXACT SOLUTION.

 NO OUTPUT CONTROL FOR STRESS PERIOD   25   TIME STEP 3531

 -------------------------------------------------------------------------------
                             SWR1 OUTPUT PRINT TIMES
                        STRESS PERIOD   25   TIME STEP  3531
 --------------- --------------- --------------- --------------- ---------------
     0.51012E+06                                                                
 -------------------------------------------------------------------------------
 
 SOLVING FOR HEAD 
 INITIAL HNEW IS AN EXACT SOLUTION.

 NO OUTPUT CONTROL FOR STRESS PERIOD   25   TIME STEP 3532

 -------------------------------------------------------------------------------
                             SWR1 OUTPUT PRINT TIMES
                        STRESS PERIOD   25   TIME STEP  3532
 --------------- --------------- --------------- --------------- ---------------
     0.51024E+06                                                                
 -------------------------------------------------------------------------------
 
 SOLVING FOR HEAD 
 INITIAL HNEW IS AN EXACT SOLUTION.

 NO OUTPUT CONTROL FOR STRESS PERIOD   25   TIME STEP 3533

 -------------------------------------------------------------------------------
                             SWR1 OUTPUT PRINT TIMES
                        STRESS PERIOD   25   TIME STEP  3533
 --------------- --------------- --------------- --------------- ---------------
     0.51036E+06                                                                
 -------------------------------------------------------------------------------
 
 SOLVING FOR HEAD 
 INITIAL HNEW IS AN EXACT SOLUTION.

 NO OUTPUT CONTROL FOR STRESS PERIOD   25   TIME STEP 3534

 -------------------------------------------------------------------------------
                             SWR1 OUTPUT PRINT TIMES
                        STRESS PERIOD   25   TIME STEP  3534
 --------------- --------------- --------------- --------------- ---------------
     0.51048E+06                                                                
 -------------------------------------------------------------------------------
 
 SOLVING FOR HEAD 
 INITIAL HNEW IS AN EXACT SOLUTION.

 NO OUTPUT CONTROL FOR STRESS PERIOD   25   TIME STEP 3535

 -------------------------------------------------------------------------------
                             SWR1 OUTPUT PRINT TIMES
                        STRESS PERIOD   25   TIME STEP  3535
 --------------- --------------- --------------- --------------- ---------------
     0.51060E+06                                                                
 -------------------------------------------------------------------------------
 
 SOLVING FOR HEAD 
 INITIAL HNEW IS AN EXACT SOLUTION.

 NO OUTPUT CONTROL FOR STRESS PERIOD   25   TIME STEP 3536

 -------------------------------------------------------------------------------
                             SWR1 OUTPUT PRINT TIMES
                        STRESS PERIOD   25   TIME STEP  3536
 --------------- --------------- --------------- --------------- ---------------
     0.51072E+06                                                                
 -------------------------------------------------------------------------------
 
 SOLVING FOR HEAD 
 INITIAL HNEW IS AN EXACT SOLUTION.

 NO OUTPUT CONTROL FOR STRESS PERIOD   25   TIME STEP 3537

 -------------------------------------------------------------------------------
                             SWR1 OUTPUT PRINT TIMES
                        STRESS PERIOD   25   TIME STEP  3537
 --------------- --------------- --------------- --------------- ---------------
     0.51084E+06                                                                
 -------------------------------------------------------------------------------
 
 SOLVING FOR HEAD 
 INITIAL HNEW IS AN EXACT SOLUTION.

 NO OUTPUT CONTROL FOR STRESS PERIOD   25   TIME STEP 3538

 -------------------------------------------------------------------------------
                             SWR1 OUTPUT PRINT TIMES
                        STRESS PERIOD   25   TIME STEP  3538
 --------------- --------------- --------------- --------------- ---------------
     0.51096E+06                                                                
 -------------------------------------------------------------------------------
 
 SOLVING FOR HEAD 
 INITIAL HNEW IS AN EXACT SOLUTION.

 NO OUTPUT CONTROL FOR STRESS PERIOD   25   TIME STEP 3539

 -------------------------------------------------------------------------------
                             SWR1 OUTPUT PRINT TIMES
                        STRESS PERIOD   25   TIME STEP  3539
 --------------- --------------- --------------- --------------- ---------------
     0.51108E+06                                                                
 -------------------------------------------------------------------------------
 
 SOLVING FOR HEAD 
 INITIAL HNEW IS AN EXACT SOLUTION.

 NO OUTPUT CONTROL FOR STRESS PERIOD   25   TIME STEP 3540

 -------------------------------------------------------------------------------
                             SWR1 OUTPUT PRINT TIMES
                        STRESS PERIOD   25   TIME STEP  3540
 --------------- --------------- --------------- --------------- ---------------
     0.51120E+06                                                                
 -------------------------------------------------------------------------------
 
 SOLVING FOR HEAD 
 INITIAL HNEW IS AN EXACT SOLUTION.

 NO OUTPUT CONTROL FOR STRESS PERIOD   25   TIME STEP 3541

 -------------------------------------------------------------------------------
                             SWR1 OUTPUT PRINT TIMES
                        STRESS PERIOD   25   TIME STEP  3541
 --------------- --------------- --------------- --------------- ---------------
     0.51132E+06                                                                
 -------------------------------------------------------------------------------
 
 SOLVING FOR HEAD 
 INITIAL HNEW IS AN EXACT SOLUTION.

 NO OUTPUT CONTROL FOR STRESS PERIOD   25   TIME STEP 3542

 -------------------------------------------------------------------------------
                             SWR1 OUTPUT PRINT TIMES
                        STRESS PERIOD   25   TIME STEP  3542
 --------------- --------------- --------------- --------------- ---------------
     0.51144E+06                                                                
 -------------------------------------------------------------------------------
 
 SOLVING FOR HEAD 
 INITIAL HNEW IS AN EXACT SOLUTION.

 NO OUTPUT CONTROL FOR STRESS PERIOD   25   TIME STEP 3543

 -------------------------------------------------------------------------------
                             SWR1 OUTPUT PRINT TIMES
                        STRESS PERIOD   25   TIME STEP  3543
 --------------- --------------- --------------- --------------- ---------------
     0.51156E+06                                                                
 -------------------------------------------------------------------------------
 
 SOLVING FOR HEAD 
 INITIAL HNEW IS AN EXACT SOLUTION.

 NO OUTPUT CONTROL FOR STRESS PERIOD   25   TIME STEP 3544

 -------------------------------------------------------------------------------
                             SWR1 OUTPUT PRINT TIMES
                        STRESS PERIOD   25   TIME STEP  3544
 --------------- --------------- --------------- --------------- ---------------
     0.51168E+06                                                                
 -------------------------------------------------------------------------------
 
 SOLVING FOR HEAD 
 INITIAL HNEW IS AN EXACT SOLUTION.

 NO OUTPUT CONTROL FOR STRESS PERIOD   25   TIME STEP 3545

 -------------------------------------------------------------------------------
                             SWR1 OUTPUT PRINT TIMES
                        STRESS PERIOD   25   TIME STEP  3545
 --------------- --------------- --------------- --------------- ---------------
     0.51180E+06                                                                
 -------------------------------------------------------------------------------
 
 SOLVING FOR HEAD 
 INITIAL HNEW IS AN EXACT SOLUTION.

 NO OUTPUT CONTROL FOR STRESS PERIOD   25   TIME STEP 3546

 -------------------------------------------------------------------------------
                             SWR1 OUTPUT PRINT TIMES
                        STRESS PERIOD   25   TIME STEP  3546
 --------------- --------------- --------------- --------------- ---------------
     0.51192E+06                                                                
 -------------------------------------------------------------------------------
 
 SOLVING FOR HEAD 
 INITIAL HNEW IS AN EXACT SOLUTION.

 NO OUTPUT CONTROL FOR STRESS PERIOD   25   TIME STEP 3547

 -------------------------------------------------------------------------------
                             SWR1 OUTPUT PRINT TIMES
                        STRESS PERIOD   25   TIME STEP  3547
 --------------- --------------- --------------- --------------- ---------------
     0.51204E+06                                                                
 -------------------------------------------------------------------------------
 
 SOLVING FOR HEAD 
 INITIAL HNEW IS AN EXACT SOLUTION.

 NO OUTPUT CONTROL FOR STRESS PERIOD   25   TIME STEP 3548

 -------------------------------------------------------------------------------
                             SWR1 OUTPUT PRINT TIMES
                        STRESS PERIOD   25   TIME STEP  3548
 --------------- --------------- --------------- --------------- ---------------
     0.51216E+06                                                                
 -------------------------------------------------------------------------------
 
 SOLVING FOR HEAD 
 INITIAL HNEW IS AN EXACT SOLUTION.

 NO OUTPUT CONTROL FOR STRESS PERIOD   25   TIME STEP 3549

 -------------------------------------------------------------------------------
                             SWR1 OUTPUT PRINT TIMES
                        STRESS PERIOD   25   TIME STEP  3549
 --------------- --------------- --------------- --------------- ---------------
     0.51228E+06                                                                
 -------------------------------------------------------------------------------
 
 SOLVING FOR HEAD 
 INITIAL HNEW IS AN EXACT SOLUTION.

 NO OUTPUT CONTROL FOR STRESS PERIOD   25   TIME STEP 3550

 -------------------------------------------------------------------------------
                             SWR1 OUTPUT PRINT TIMES
                        STRESS PERIOD   25   TIME STEP  3550
 --------------- --------------- --------------- --------------- ---------------
     0.51240E+06                                                                
 -------------------------------------------------------------------------------
 
 SOLVING FOR HEAD 
 INITIAL HNEW IS AN EXACT SOLUTION.

 NO OUTPUT CONTROL FOR STRESS PERIOD   25   TIME STEP 3551

 -------------------------------------------------------------------------------
                             SWR1 OUTPUT PRINT TIMES
                        STRESS PERIOD   25   TIME STEP  3551
 --------------- --------------- --------------- --------------- ---------------
     0.51252E+06                                                                
 -------------------------------------------------------------------------------
 
 SOLVING FOR HEAD 
 INITIAL HNEW IS AN EXACT SOLUTION.

 NO OUTPUT CONTROL FOR STRESS PERIOD   25   TIME STEP 3552

 -------------------------------------------------------------------------------
                             SWR1 OUTPUT PRINT TIMES
                        STRESS PERIOD   25   TIME STEP  3552
 --------------- --------------- --------------- --------------- ---------------
     0.51264E+06                                                                
 -------------------------------------------------------------------------------
 
 SOLVING FOR HEAD 
 INITIAL HNEW IS AN EXACT SOLUTION.

 NO OUTPUT CONTROL FOR STRESS PERIOD   25   TIME STEP 3553

 -------------------------------------------------------------------------------
                             SWR1 OUTPUT PRINT TIMES
                        STRESS PERIOD   25   TIME STEP  3553
 --------------- --------------- --------------- --------------- ---------------
     0.51276E+06                                                                
 -------------------------------------------------------------------------------
 
 SOLVING FOR HEAD 
 INITIAL HNEW IS AN EXACT SOLUTION.

 NO OUTPUT CONTROL FOR STRESS PERIOD   25   TIME STEP 3554

 -------------------------------------------------------------------------------
                             SWR1 OUTPUT PRINT TIMES
                        STRESS PERIOD   25   TIME STEP  3554
 --------------- --------------- --------------- --------------- ---------------
     0.51288E+06                                                                
 -------------------------------------------------------------------------------
 
 SOLVING FOR HEAD 
 INITIAL HNEW IS AN EXACT SOLUTION.

 NO OUTPUT CONTROL FOR STRESS PERIOD   25   TIME STEP 3555

 -------------------------------------------------------------------------------
                             SWR1 OUTPUT PRINT TIMES
                        STRESS PERIOD   25   TIME STEP  3555
 --------------- --------------- --------------- --------------- ---------------
     0.51300E+06                                                                
 -------------------------------------------------------------------------------
 
 SOLVING FOR HEAD 
 INITIAL HNEW IS AN EXACT SOLUTION.

 NO OUTPUT CONTROL FOR STRESS PERIOD   25   TIME STEP 3556

 -------------------------------------------------------------------------------
                             SWR1 OUTPUT PRINT TIMES
                        STRESS PERIOD   25   TIME STEP  3556
 --------------- --------------- --------------- --------------- ---------------
     0.51312E+06                                                                
 -------------------------------------------------------------------------------
 
 SOLVING FOR HEAD 
 INITIAL HNEW IS AN EXACT SOLUTION.

 NO OUTPUT CONTROL FOR STRESS PERIOD   25   TIME STEP 3557

 -------------------------------------------------------------------------------
                             SWR1 OUTPUT PRINT TIMES
                        STRESS PERIOD   25   TIME STEP  3557
 --------------- --------------- --------------- --------------- ---------------
     0.51324E+06                                                                
 -------------------------------------------------------------------------------
 
 SOLVING FOR HEAD 
 INITIAL HNEW IS AN EXACT SOLUTION.

 NO OUTPUT CONTROL FOR STRESS PERIOD   25   TIME STEP 3558

 -------------------------------------------------------------------------------
                             SWR1 OUTPUT PRINT TIMES
                        STRESS PERIOD   25   TIME STEP  3558
 --------------- --------------- --------------- --------------- ---------------
     0.51336E+06                                                                
 -------------------------------------------------------------------------------
 
 SOLVING FOR HEAD 
 INITIAL HNEW IS AN EXACT SOLUTION.

 NO OUTPUT CONTROL FOR STRESS PERIOD   25   TIME STEP 3559

 -------------------------------------------------------------------------------
                             SWR1 OUTPUT PRINT TIMES
                        STRESS PERIOD   25   TIME STEP  3559
 --------------- --------------- --------------- --------------- ---------------
     0.51348E+06                                                                
 -------------------------------------------------------------------------------
 
 SOLVING FOR HEAD 
 INITIAL HNEW IS AN EXACT SOLUTION.

 NO OUTPUT CONTROL FOR STRESS PERIOD   25   TIME STEP 3560

 -------------------------------------------------------------------------------
                             SWR1 OUTPUT PRINT TIMES
                        STRESS PERIOD   25   TIME STEP  3560
 --------------- --------------- --------------- --------------- ---------------
     0.51360E+06                                                                
 -------------------------------------------------------------------------------
 
 SOLVING FOR HEAD 
 INITIAL HNEW IS AN EXACT SOLUTION.

 NO OUTPUT CONTROL FOR STRESS PERIOD   25   TIME STEP 3561

 -------------------------------------------------------------------------------
                             SWR1 OUTPUT PRINT TIMES
                        STRESS PERIOD   25   TIME STEP  3561
 --------------- --------------- --------------- --------------- ---------------
     0.51372E+06                                                                
 -------------------------------------------------------------------------------
 
 SOLVING FOR HEAD 
 INITIAL HNEW IS AN EXACT SOLUTION.

 NO OUTPUT CONTROL FOR STRESS PERIOD   25   TIME STEP 3562

 -------------------------------------------------------------------------------
                             SWR1 OUTPUT PRINT TIMES
                        STRESS PERIOD   25   TIME STEP  3562
 --------------- --------------- --------------- --------------- ---------------
     0.51384E+06                                                                
 -------------------------------------------------------------------------------
 
 SOLVING FOR HEAD 
 INITIAL HNEW IS AN EXACT SOLUTION.

 NO OUTPUT CONTROL FOR STRESS PERIOD   25   TIME STEP 3563

 -------------------------------------------------------------------------------
                             SWR1 OUTPUT PRINT TIMES
                        STRESS PERIOD   25   TIME STEP  3563
 --------------- --------------- --------------- --------------- ---------------
     0.51396E+06                                                                
 -------------------------------------------------------------------------------
 
 SOLVING FOR HEAD 
 INITIAL HNEW IS AN EXACT SOLUTION.

 NO OUTPUT CONTROL FOR STRESS PERIOD   25   TIME STEP 3564

 -------------------------------------------------------------------------------
                             SWR1 OUTPUT PRINT TIMES
                        STRESS PERIOD   25   TIME STEP  3564
 --------------- --------------- --------------- --------------- ---------------
     0.51408E+06                                                                
 -------------------------------------------------------------------------------
 
 SOLVING FOR HEAD 
 INITIAL HNEW IS AN EXACT SOLUTION.

 NO OUTPUT CONTROL FOR STRESS PERIOD   25   TIME STEP 3565

 -------------------------------------------------------------------------------
                             SWR1 OUTPUT PRINT TIMES
                        STRESS PERIOD   25   TIME STEP  3565
 --------------- --------------- --------------- --------------- ---------------
     0.51420E+06                                                                
 -------------------------------------------------------------------------------
 
 SOLVING FOR HEAD 
 INITIAL HNEW IS AN EXACT SOLUTION.

 NO OUTPUT CONTROL FOR STRESS PERIOD   25   TIME STEP 3566

 -------------------------------------------------------------------------------
                             SWR1 OUTPUT PRINT TIMES
                        STRESS PERIOD   25   TIME STEP  3566
 --------------- --------------- --------------- --------------- ---------------
     0.51432E+06                                                                
 -------------------------------------------------------------------------------
 
 SOLVING FOR HEAD 
 INITIAL HNEW IS AN EXACT SOLUTION.

 NO OUTPUT CONTROL FOR STRESS PERIOD   25   TIME STEP 3567

 -------------------------------------------------------------------------------
                             SWR1 OUTPUT PRINT TIMES
                        STRESS PERIOD   25   TIME STEP  3567
 --------------- --------------- --------------- --------------- ---------------
     0.51444E+06                                                                
 -------------------------------------------------------------------------------
 
 SOLVING FOR HEAD 
 INITIAL HNEW IS AN EXACT SOLUTION.

 NO OUTPUT CONTROL FOR STRESS PERIOD   25   TIME STEP 3568

 -------------------------------------------------------------------------------
                             SWR1 OUTPUT PRINT TIMES
                        STRESS PERIOD   25   TIME STEP  3568
 --------------- --------------- --------------- --------------- ---------------
     0.51456E+06                                                                
 -------------------------------------------------------------------------------
 
 SOLVING FOR HEAD 
 INITIAL HNEW IS AN EXACT SOLUTION.

 NO OUTPUT CONTROL FOR STRESS PERIOD   25   TIME STEP 3569

 -------------------------------------------------------------------------------
                             SWR1 OUTPUT PRINT TIMES
                        STRESS PERIOD   25   TIME STEP  3569
 --------------- --------------- --------------- --------------- ---------------
     0.51468E+06                                                                
 -------------------------------------------------------------------------------
 
 SOLVING FOR HEAD 
 INITIAL HNEW IS AN EXACT SOLUTION.

 NO OUTPUT CONTROL FOR STRESS PERIOD   25   TIME STEP 3570

 -------------------------------------------------------------------------------
                             SWR1 OUTPUT PRINT TIMES
                        STRESS PERIOD   25   TIME STEP  3570
 --------------- --------------- --------------- --------------- ---------------
     0.51480E+06                                                                
 -------------------------------------------------------------------------------
 
 SOLVING FOR HEAD 
 INITIAL HNEW IS AN EXACT SOLUTION.

 NO OUTPUT CONTROL FOR STRESS PERIOD   25   TIME STEP 3571

 -------------------------------------------------------------------------------
                             SWR1 OUTPUT PRINT TIMES
                        STRESS PERIOD   25   TIME STEP  3571
 --------------- --------------- --------------- --------------- ---------------
     0.51492E+06                                                                
 -------------------------------------------------------------------------------
 
 SOLVING FOR HEAD 
 INITIAL HNEW IS AN EXACT SOLUTION.

 NO OUTPUT CONTROL FOR STRESS PERIOD   25   TIME STEP 3572

 -------------------------------------------------------------------------------
                             SWR1 OUTPUT PRINT TIMES
                        STRESS PERIOD   25   TIME STEP  3572
 --------------- --------------- --------------- --------------- ---------------
     0.51504E+06                                                                
 -------------------------------------------------------------------------------
 
 SOLVING FOR HEAD 
 INITIAL HNEW IS AN EXACT SOLUTION.

 NO OUTPUT CONTROL FOR STRESS PERIOD   25   TIME STEP 3573

 -------------------------------------------------------------------------------
                             SWR1 OUTPUT PRINT TIMES
                        STRESS PERIOD   25   TIME STEP  3573
 --------------- --------------- --------------- --------------- ---------------
     0.51516E+06                                                                
 -------------------------------------------------------------------------------
 
 SOLVING FOR HEAD 
 INITIAL HNEW IS AN EXACT SOLUTION.

 NO OUTPUT CONTROL FOR STRESS PERIOD   25   TIME STEP 3574

 -------------------------------------------------------------------------------
                             SWR1 OUTPUT PRINT TIMES
                        STRESS PERIOD   25   TIME STEP  3574
 --------------- --------------- --------------- --------------- ---------------
     0.51528E+06                                                                
 -------------------------------------------------------------------------------
 
 SOLVING FOR HEAD 
 INITIAL HNEW IS AN EXACT SOLUTION.

 NO OUTPUT CONTROL FOR STRESS PERIOD   25   TIME STEP 3575

 -------------------------------------------------------------------------------
                             SWR1 OUTPUT PRINT TIMES
                        STRESS PERIOD   25   TIME STEP  3575
 --------------- --------------- --------------- --------------- ---------------
     0.51540E+06                                                                
 -------------------------------------------------------------------------------
 
 SOLVING FOR HEAD 
 INITIAL HNEW IS AN EXACT SOLUTION.

 NO OUTPUT CONTROL FOR STRESS PERIOD   25   TIME STEP 3576

 -------------------------------------------------------------------------------
                             SWR1 OUTPUT PRINT TIMES
                        STRESS PERIOD   25   TIME STEP  3576
 --------------- --------------- --------------- --------------- ---------------
     0.51552E+06                                                                
 -------------------------------------------------------------------------------
 
 SOLVING FOR HEAD 
 INITIAL HNEW IS AN EXACT SOLUTION.

 NO OUTPUT CONTROL FOR STRESS PERIOD   25   TIME STEP 3577

 -------------------------------------------------------------------------------
                             SWR1 OUTPUT PRINT TIMES
                        STRESS PERIOD   25   TIME STEP  3577
 --------------- --------------- --------------- --------------- ---------------
     0.51564E+06                                                                
 -------------------------------------------------------------------------------
 
 SOLVING FOR HEAD 
 INITIAL HNEW IS AN EXACT SOLUTION.

 NO OUTPUT CONTROL FOR STRESS PERIOD   25   TIME STEP 3578

 -------------------------------------------------------------------------------
                             SWR1 OUTPUT PRINT TIMES
                        STRESS PERIOD   25   TIME STEP  3578
 --------------- --------------- --------------- --------------- ---------------
     0.51576E+06                                                                
 -------------------------------------------------------------------------------
 
 SOLVING FOR HEAD 
 INITIAL HNEW IS AN EXACT SOLUTION.

 NO OUTPUT CONTROL FOR STRESS PERIOD   25   TIME STEP 3579

 -------------------------------------------------------------------------------
                             SWR1 OUTPUT PRINT TIMES
                        STRESS PERIOD   25   TIME STEP  3579
 --------------- --------------- --------------- --------------- ---------------
     0.51588E+06                                                                
 -------------------------------------------------------------------------------
 
 SOLVING FOR HEAD 
 INITIAL HNEW IS AN EXACT SOLUTION.

 NO OUTPUT CONTROL FOR STRESS PERIOD   25   TIME STEP 3580

 -------------------------------------------------------------------------------
                             SWR1 OUTPUT PRINT TIMES
                        STRESS PERIOD   25   TIME STEP  3580
 --------------- --------------- --------------- --------------- ---------------
     0.51600E+06                                                                
 -------------------------------------------------------------------------------
 
 SOLVING FOR HEAD 
 INITIAL HNEW IS AN EXACT SOLUTION.

 NO OUTPUT CONTROL FOR STRESS PERIOD   25   TIME STEP 3581

 -------------------------------------------------------------------------------
                             SWR1 OUTPUT PRINT TIMES
                        STRESS PERIOD   25   TIME STEP  3581
 --------------- --------------- --------------- --------------- ---------------
     0.51612E+06                                                                
 -------------------------------------------------------------------------------
 
 SOLVING FOR HEAD 
 INITIAL HNEW IS AN EXACT SOLUTION.

 NO OUTPUT CONTROL FOR STRESS PERIOD   25   TIME STEP 3582

 -------------------------------------------------------------------------------
                             SWR1 OUTPUT PRINT TIMES
                        STRESS PERIOD   25   TIME STEP  3582
 --------------- --------------- --------------- --------------- ---------------
     0.51624E+06                                                                
 -------------------------------------------------------------------------------
 
 SOLVING FOR HEAD 
 INITIAL HNEW IS AN EXACT SOLUTION.

 NO OUTPUT CONTROL FOR STRESS PERIOD   25   TIME STEP 3583

 -------------------------------------------------------------------------------
                             SWR1 OUTPUT PRINT TIMES
                        STRESS PERIOD   25   TIME STEP  3583
 --------------- --------------- --------------- --------------- ---------------
     0.51636E+06                                                                
 -------------------------------------------------------------------------------
 
 SOLVING FOR HEAD 
 INITIAL HNEW IS AN EXACT SOLUTION.

 NO OUTPUT CONTROL FOR STRESS PERIOD   25   TIME STEP 3584

 -------------------------------------------------------------------------------
                             SWR1 OUTPUT PRINT TIMES
                        STRESS PERIOD   25   TIME STEP  3584
 --------------- --------------- --------------- --------------- ---------------
     0.51648E+06                                                                
 -------------------------------------------------------------------------------
 
 SOLVING FOR HEAD 
 INITIAL HNEW IS AN EXACT SOLUTION.

 NO OUTPUT CONTROL FOR STRESS PERIOD   25   TIME STEP 3585

 -------------------------------------------------------------------------------
                             SWR1 OUTPUT PRINT TIMES
                        STRESS PERIOD   25   TIME STEP  3585
 --------------- --------------- --------------- --------------- ---------------
     0.51660E+06                                                                
 -------------------------------------------------------------------------------
 
 SOLVING FOR HEAD 
 INITIAL HNEW IS AN EXACT SOLUTION.

 NO OUTPUT CONTROL FOR STRESS PERIOD   25   TIME STEP 3586

 -------------------------------------------------------------------------------
                             SWR1 OUTPUT PRINT TIMES
                        STRESS PERIOD   25   TIME STEP  3586
 --------------- --------------- --------------- --------------- ---------------
     0.51672E+06                                                                
 -------------------------------------------------------------------------------
 
 SOLVING FOR HEAD 
 INITIAL HNEW IS AN EXACT SOLUTION.

 NO OUTPUT CONTROL FOR STRESS PERIOD   25   TIME STEP 3587

 -------------------------------------------------------------------------------
                             SWR1 OUTPUT PRINT TIMES
                        STRESS PERIOD   25   TIME STEP  3587
 --------------- --------------- --------------- --------------- ---------------
     0.51684E+06                                                                
 -------------------------------------------------------------------------------
 
 SOLVING FOR HEAD 
 INITIAL HNEW IS AN EXACT SOLUTION.

 NO OUTPUT CONTROL FOR STRESS PERIOD   25   TIME STEP 3588

 -------------------------------------------------------------------------------
                             SWR1 OUTPUT PRINT TIMES
                        STRESS PERIOD   25   TIME STEP  3588
 --------------- --------------- --------------- --------------- ---------------
     0.51696E+06                                                                
 -------------------------------------------------------------------------------
 
 SOLVING FOR HEAD 
 INITIAL HNEW IS AN EXACT SOLUTION.

 NO OUTPUT CONTROL FOR STRESS PERIOD   25   TIME STEP 3589

 -------------------------------------------------------------------------------
                             SWR1 OUTPUT PRINT TIMES
                        STRESS PERIOD   25   TIME STEP  3589
 --------------- --------------- --------------- --------------- ---------------
     0.51708E+06                                                                
 -------------------------------------------------------------------------------
 
 SOLVING FOR HEAD 
 INITIAL HNEW IS AN EXACT SOLUTION.

 NO OUTPUT CONTROL FOR STRESS PERIOD   25   TIME STEP 3590

 -------------------------------------------------------------------------------
                             SWR1 OUTPUT PRINT TIMES
                        STRESS PERIOD   25   TIME STEP  3590
 --------------- --------------- --------------- --------------- ---------------
     0.51720E+06                                                                
 -------------------------------------------------------------------------------
 
 SOLVING FOR HEAD 
 INITIAL HNEW IS AN EXACT SOLUTION.

 NO OUTPUT CONTROL FOR STRESS PERIOD   25   TIME STEP 3591

 -------------------------------------------------------------------------------
                             SWR1 OUTPUT PRINT TIMES
                        STRESS PERIOD   25   TIME STEP  3591
 --------------- --------------- --------------- --------------- ---------------
     0.51732E+06                                                                
 -------------------------------------------------------------------------------
 
 SOLVING FOR HEAD 
 INITIAL HNEW IS AN EXACT SOLUTION.

 NO OUTPUT CONTROL FOR STRESS PERIOD   25   TIME STEP 3592

 -------------------------------------------------------------------------------
                             SWR1 OUTPUT PRINT TIMES
                        STRESS PERIOD   25   TIME STEP  3592
 --------------- --------------- --------------- --------------- ---------------
     0.51744E+06                                                                
 -------------------------------------------------------------------------------
 
 SOLVING FOR HEAD 
 INITIAL HNEW IS AN EXACT SOLUTION.

 NO OUTPUT CONTROL FOR STRESS PERIOD   25   TIME STEP 3593

 -------------------------------------------------------------------------------
                             SWR1 OUTPUT PRINT TIMES
                        STRESS PERIOD   25   TIME STEP  3593
 --------------- --------------- --------------- --------------- ---------------
     0.51756E+06                                                                
 -------------------------------------------------------------------------------
 
 SOLVING FOR HEAD 
 INITIAL HNEW IS AN EXACT SOLUTION.

 NO OUTPUT CONTROL FOR STRESS PERIOD   25   TIME STEP 3594

 -------------------------------------------------------------------------------
                             SWR1 OUTPUT PRINT TIMES
                        STRESS PERIOD   25   TIME STEP  3594
 --------------- --------------- --------------- --------------- ---------------
     0.51768E+06                                                                
 -------------------------------------------------------------------------------
 
 SOLVING FOR HEAD 
 INITIAL HNEW IS AN EXACT SOLUTION.

 NO OUTPUT CONTROL FOR STRESS PERIOD   25   TIME STEP 3595

 -------------------------------------------------------------------------------
                             SWR1 OUTPUT PRINT TIMES
                        STRESS PERIOD   25   TIME STEP  3595
 --------------- --------------- --------------- --------------- ---------------
     0.51780E+06                                                                
 -------------------------------------------------------------------------------
 
 SOLVING FOR HEAD 
 INITIAL HNEW IS AN EXACT SOLUTION.

 NO OUTPUT CONTROL FOR STRESS PERIOD   25   TIME STEP 3596

 -------------------------------------------------------------------------------
                             SWR1 OUTPUT PRINT TIMES
                        STRESS PERIOD   25   TIME STEP  3596
 --------------- --------------- --------------- --------------- ---------------
     0.51792E+06                                                                
 -------------------------------------------------------------------------------
 
 SOLVING FOR HEAD 
 INITIAL HNEW IS AN EXACT SOLUTION.

 NO OUTPUT CONTROL FOR STRESS PERIOD   25   TIME STEP 3597

 -------------------------------------------------------------------------------
                             SWR1 OUTPUT PRINT TIMES
                        STRESS PERIOD   25   TIME STEP  3597
 --------------- --------------- --------------- --------------- ---------------
     0.51804E+06                                                                
 -------------------------------------------------------------------------------
 
 SOLVING FOR HEAD 
 INITIAL HNEW IS AN EXACT SOLUTION.

 NO OUTPUT CONTROL FOR STRESS PERIOD   25   TIME STEP 3598

 -------------------------------------------------------------------------------
                             SWR1 OUTPUT PRINT TIMES
                        STRESS PERIOD   25   TIME STEP  3598
 --------------- --------------- --------------- --------------- ---------------
     0.51816E+06                                                                
 -------------------------------------------------------------------------------
 
 SOLVING FOR HEAD 
 INITIAL HNEW IS AN EXACT SOLUTION.

 NO OUTPUT CONTROL FOR STRESS PERIOD   25   TIME STEP 3599

 -------------------------------------------------------------------------------
                             SWR1 OUTPUT PRINT TIMES
                        STRESS PERIOD   25   TIME STEP  3599
 --------------- --------------- --------------- --------------- ---------------
     0.51828E+06                                                                
 -------------------------------------------------------------------------------
 
 SOLVING FOR HEAD 
 INITIAL HNEW IS AN EXACT SOLUTION.

 NO OUTPUT CONTROL FOR STRESS PERIOD   25   TIME STEP 3600

 -------------------------------------------------------------------------------
                             SWR1 OUTPUT PRINT TIMES
                        STRESS PERIOD   25   TIME STEP  3600
 --------------- --------------- --------------- --------------- ---------------
     0.51840E+06                                                                
 -------------------------------------------------------------------------------
 
 SOLVING FOR HEAD 
 INITIAL HNEW IS AN EXACT SOLUTION.

 NO OUTPUT CONTROL FOR STRESS PERIOD   25   TIME STEP 3601

 -------------------------------------------------------------------------------
                             SWR1 OUTPUT PRINT TIMES
                        STRESS PERIOD   25   TIME STEP  3601
 --------------- --------------- --------------- --------------- ---------------
     0.51852E+06                                                                
 -------------------------------------------------------------------------------
 
 SOLVING FOR HEAD 
 INITIAL HNEW IS AN EXACT SOLUTION.

 NO OUTPUT CONTROL FOR STRESS PERIOD   25   TIME STEP 3602

 -------------------------------------------------------------------------------
                             SWR1 OUTPUT PRINT TIMES
                        STRESS PERIOD   25   TIME STEP  3602
 --------------- --------------- --------------- --------------- ---------------
     0.51864E+06                                                                
 -------------------------------------------------------------------------------
 
 SOLVING FOR HEAD 
 INITIAL HNEW IS AN EXACT SOLUTION.

 NO OUTPUT CONTROL FOR STRESS PERIOD   25   TIME STEP 3603

 -------------------------------------------------------------------------------
                             SWR1 OUTPUT PRINT TIMES
                        STRESS PERIOD   25   TIME STEP  3603
 --------------- --------------- --------------- --------------- ---------------
     0.51876E+06                                                                
 -------------------------------------------------------------------------------
 
 SOLVING FOR HEAD 
 INITIAL HNEW IS AN EXACT SOLUTION.

 NO OUTPUT CONTROL FOR STRESS PERIOD   25   TIME STEP 3604

 -------------------------------------------------------------------------------
                             SWR1 OUTPUT PRINT TIMES
                        STRESS PERIOD   25   TIME STEP  3604
 --------------- --------------- --------------- --------------- ---------------
     0.51888E+06                                                                
 -------------------------------------------------------------------------------
 
 SOLVING FOR HEAD 
 INITIAL HNEW IS AN EXACT SOLUTION.

 NO OUTPUT CONTROL FOR STRESS PERIOD   25   TIME STEP 3605

 -------------------------------------------------------------------------------
                             SWR1 OUTPUT PRINT TIMES
                        STRESS PERIOD   25   TIME STEP  3605
 --------------- --------------- --------------- --------------- ---------------
     0.51900E+06                                                                
 -------------------------------------------------------------------------------
 
 SOLVING FOR HEAD 
 INITIAL HNEW IS AN EXACT SOLUTION.

 NO OUTPUT CONTROL FOR STRESS PERIOD   25   TIME STEP 3606

 -------------------------------------------------------------------------------
                             SWR1 OUTPUT PRINT TIMES
                        STRESS PERIOD   25   TIME STEP  3606
 --------------- --------------- --------------- --------------- ---------------
     0.51912E+06                                                                
 -------------------------------------------------------------------------------
 
 SOLVING FOR HEAD 
 INITIAL HNEW IS AN EXACT SOLUTION.

 NO OUTPUT CONTROL FOR STRESS PERIOD   25   TIME STEP 3607

 -------------------------------------------------------------------------------
                             SWR1 OUTPUT PRINT TIMES
                        STRESS PERIOD   25   TIME STEP  3607
 --------------- --------------- --------------- --------------- ---------------
     0.51924E+06                                                                
 -------------------------------------------------------------------------------
 
 SOLVING FOR HEAD 
 INITIAL HNEW IS AN EXACT SOLUTION.

 NO OUTPUT CONTROL FOR STRESS PERIOD   25   TIME STEP 3608

 -------------------------------------------------------------------------------
                             SWR1 OUTPUT PRINT TIMES
                        STRESS PERIOD   25   TIME STEP  3608
 --------------- --------------- --------------- --------------- ---------------
     0.51936E+06                                                                
 -------------------------------------------------------------------------------
 
 SOLVING FOR HEAD 
 INITIAL HNEW IS AN EXACT SOLUTION.

 NO OUTPUT CONTROL FOR STRESS PERIOD   25   TIME STEP 3609

 -------------------------------------------------------------------------------
                             SWR1 OUTPUT PRINT TIMES
                        STRESS PERIOD   25   TIME STEP  3609
 --------------- --------------- --------------- --------------- ---------------
     0.51948E+06                                                                
 -------------------------------------------------------------------------------
 
 SOLVING FOR HEAD 
 INITIAL HNEW IS AN EXACT SOLUTION.

 NO OUTPUT CONTROL FOR STRESS PERIOD   25   TIME STEP 3610

 -------------------------------------------------------------------------------
                             SWR1 OUTPUT PRINT TIMES
                        STRESS PERIOD   25   TIME STEP  3610
 --------------- --------------- --------------- --------------- ---------------
     0.51960E+06                                                                
 -------------------------------------------------------------------------------
 
 SOLVING FOR HEAD 
 INITIAL HNEW IS AN EXACT SOLUTION.

 NO OUTPUT CONTROL FOR STRESS PERIOD   25   TIME STEP 3611

 -------------------------------------------------------------------------------
                             SWR1 OUTPUT PRINT TIMES
                        STRESS PERIOD   25   TIME STEP  3611
 --------------- --------------- --------------- --------------- ---------------
     0.51972E+06                                                                
 -------------------------------------------------------------------------------
 
 SOLVING FOR HEAD 
 INITIAL HNEW IS AN EXACT SOLUTION.

 NO OUTPUT CONTROL FOR STRESS PERIOD   25   TIME STEP 3612

 -------------------------------------------------------------------------------
                             SWR1 OUTPUT PRINT TIMES
                        STRESS PERIOD   25   TIME STEP  3612
 --------------- --------------- --------------- --------------- ---------------
     0.51984E+06                                                                
 -------------------------------------------------------------------------------
 
 SOLVING FOR HEAD 
 INITIAL HNEW IS AN EXACT SOLUTION.

 NO OUTPUT CONTROL FOR STRESS PERIOD   25   TIME STEP 3613

 -------------------------------------------------------------------------------
                             SWR1 OUTPUT PRINT TIMES
                        STRESS PERIOD   25   TIME STEP  3613
 --------------- --------------- --------------- --------------- ---------------
     0.51996E+06                                                                
 -------------------------------------------------------------------------------
 
 SOLVING FOR HEAD 
 INITIAL HNEW IS AN EXACT SOLUTION.

 NO OUTPUT CONTROL FOR STRESS PERIOD   25   TIME STEP 3614

 -------------------------------------------------------------------------------
                             SWR1 OUTPUT PRINT TIMES
                        STRESS PERIOD   25   TIME STEP  3614
 --------------- --------------- --------------- --------------- ---------------
     0.52008E+06                                                                
 -------------------------------------------------------------------------------
 
 SOLVING FOR HEAD 
 INITIAL HNEW IS AN EXACT SOLUTION.

 NO OUTPUT CONTROL FOR STRESS PERIOD   25   TIME STEP 3615

 -------------------------------------------------------------------------------
                             SWR1 OUTPUT PRINT TIMES
                        STRESS PERIOD   25   TIME STEP  3615
 --------------- --------------- --------------- --------------- ---------------
     0.52020E+06                                                                
 -------------------------------------------------------------------------------
 
 SOLVING FOR HEAD 
 INITIAL HNEW IS AN EXACT SOLUTION.

 NO OUTPUT CONTROL FOR STRESS PERIOD   25   TIME STEP 3616

 -------------------------------------------------------------------------------
                             SWR1 OUTPUT PRINT TIMES
                        STRESS PERIOD   25   TIME STEP  3616
 --------------- --------------- --------------- --------------- ---------------
     0.52032E+06                                                                
 -------------------------------------------------------------------------------
 
 SOLVING FOR HEAD 
 INITIAL HNEW IS AN EXACT SOLUTION.

 NO OUTPUT CONTROL FOR STRESS PERIOD   25   TIME STEP 3617

 -------------------------------------------------------------------------------
                             SWR1 OUTPUT PRINT TIMES
                        STRESS PERIOD   25   TIME STEP  3617
 --------------- --------------- --------------- --------------- ---------------
     0.52044E+06                                                                
 -------------------------------------------------------------------------------
 
 SOLVING FOR HEAD 
 INITIAL HNEW IS AN EXACT SOLUTION.

 NO OUTPUT CONTROL FOR STRESS PERIOD   25   TIME STEP 3618

 -------------------------------------------------------------------------------
                             SWR1 OUTPUT PRINT TIMES
                        STRESS PERIOD   25   TIME STEP  3618
 --------------- --------------- --------------- --------------- ---------------
     0.52056E+06                                                                
 -------------------------------------------------------------------------------
 
 SOLVING FOR HEAD 
 INITIAL HNEW IS AN EXACT SOLUTION.

 NO OUTPUT CONTROL FOR STRESS PERIOD   25   TIME STEP 3619

 -------------------------------------------------------------------------------
                             SWR1 OUTPUT PRINT TIMES
                        STRESS PERIOD   25   TIME STEP  3619
 --------------- --------------- --------------- --------------- ---------------
     0.52068E+06                                                                
 -------------------------------------------------------------------------------
 
 SOLVING FOR HEAD 
 INITIAL HNEW IS AN EXACT SOLUTION.

 NO OUTPUT CONTROL FOR STRESS PERIOD   25   TIME STEP 3620

 -------------------------------------------------------------------------------
                             SWR1 OUTPUT PRINT TIMES
                        STRESS PERIOD   25   TIME STEP  3620
 --------------- --------------- --------------- --------------- ---------------
     0.52080E+06                                                                
 -------------------------------------------------------------------------------
 
 SOLVING FOR HEAD 
 INITIAL HNEW IS AN EXACT SOLUTION.

 NO OUTPUT CONTROL FOR STRESS PERIOD   25   TIME STEP 3621

 -------------------------------------------------------------------------------
                             SWR1 OUTPUT PRINT TIMES
                        STRESS PERIOD   25   TIME STEP  3621
 --------------- --------------- --------------- --------------- ---------------
     0.52092E+06                                                                
 -------------------------------------------------------------------------------
 
 SOLVING FOR HEAD 
 INITIAL HNEW IS AN EXACT SOLUTION.

 NO OUTPUT CONTROL FOR STRESS PERIOD   25   TIME STEP 3622

 -------------------------------------------------------------------------------
                             SWR1 OUTPUT PRINT TIMES
                        STRESS PERIOD   25   TIME STEP  3622
 --------------- --------------- --------------- --------------- ---------------
     0.52104E+06                                                                
 -------------------------------------------------------------------------------
 
 SOLVING FOR HEAD 
 INITIAL HNEW IS AN EXACT SOLUTION.

 NO OUTPUT CONTROL FOR STRESS PERIOD   25   TIME STEP 3623

 -------------------------------------------------------------------------------
                             SWR1 OUTPUT PRINT TIMES
                        STRESS PERIOD   25   TIME STEP  3623
 --------------- --------------- --------------- --------------- ---------------
     0.52116E+06                                                                
 -------------------------------------------------------------------------------
 
 SOLVING FOR HEAD 
 INITIAL HNEW IS AN EXACT SOLUTION.

 NO OUTPUT CONTROL FOR STRESS PERIOD   25   TIME STEP 3624

 -------------------------------------------------------------------------------
                             SWR1 OUTPUT PRINT TIMES
                        STRESS PERIOD   25   TIME STEP  3624
 --------------- --------------- --------------- --------------- ---------------
     0.52128E+06                                                                
 -------------------------------------------------------------------------------
 
 SOLVING FOR HEAD 
 INITIAL HNEW IS AN EXACT SOLUTION.

 NO OUTPUT CONTROL FOR STRESS PERIOD   25   TIME STEP 3625

 -------------------------------------------------------------------------------
                             SWR1 OUTPUT PRINT TIMES
                        STRESS PERIOD   25   TIME STEP  3625
 --------------- --------------- --------------- --------------- ---------------
     0.52140E+06                                                                
 -------------------------------------------------------------------------------
 
 SOLVING FOR HEAD 
 INITIAL HNEW IS AN EXACT SOLUTION.

 NO OUTPUT CONTROL FOR STRESS PERIOD   25   TIME STEP 3626

 -------------------------------------------------------------------------------
                             SWR1 OUTPUT PRINT TIMES
                        STRESS PERIOD   25   TIME STEP  3626
 --------------- --------------- --------------- --------------- ---------------
     0.52152E+06                                                                
 -------------------------------------------------------------------------------
 
 SOLVING FOR HEAD 
 INITIAL HNEW IS AN EXACT SOLUTION.

 NO OUTPUT CONTROL FOR STRESS PERIOD   25   TIME STEP 3627

 -------------------------------------------------------------------------------
                             SWR1 OUTPUT PRINT TIMES
                        STRESS PERIOD   25   TIME STEP  3627
 --------------- --------------- --------------- --------------- ---------------
     0.52164E+06                                                                
 -------------------------------------------------------------------------------
 
 SOLVING FOR HEAD 
 INITIAL HNEW IS AN EXACT SOLUTION.

 NO OUTPUT CONTROL FOR STRESS PERIOD   25   TIME STEP 3628

 -------------------------------------------------------------------------------
                             SWR1 OUTPUT PRINT TIMES
                        STRESS PERIOD   25   TIME STEP  3628
 --------------- --------------- --------------- --------------- ---------------
     0.52176E+06                                                                
 -------------------------------------------------------------------------------
 
 SOLVING FOR HEAD 
 INITIAL HNEW IS AN EXACT SOLUTION.

 NO OUTPUT CONTROL FOR STRESS PERIOD   25   TIME STEP 3629

 -------------------------------------------------------------------------------
                             SWR1 OUTPUT PRINT TIMES
                        STRESS PERIOD   25   TIME STEP  3629
 --------------- --------------- --------------- --------------- ---------------
     0.52188E+06                                                                
 -------------------------------------------------------------------------------
 
 SOLVING FOR HEAD 
 INITIAL HNEW IS AN EXACT SOLUTION.

 NO OUTPUT CONTROL FOR STRESS PERIOD   25   TIME STEP 3630

 -------------------------------------------------------------------------------
                             SWR1 OUTPUT PRINT TIMES
                        STRESS PERIOD   25   TIME STEP  3630
 --------------- --------------- --------------- --------------- ---------------
     0.52200E+06                                                                
 -------------------------------------------------------------------------------
 
 SOLVING FOR HEAD 
 INITIAL HNEW IS AN EXACT SOLUTION.

 NO OUTPUT CONTROL FOR STRESS PERIOD   25   TIME STEP 3631

 -------------------------------------------------------------------------------
                             SWR1 OUTPUT PRINT TIMES
                        STRESS PERIOD   25   TIME STEP  3631
 --------------- --------------- --------------- --------------- ---------------
     0.52212E+06                                                                
 -------------------------------------------------------------------------------
 
 SOLVING FOR HEAD 
 INITIAL HNEW IS AN EXACT SOLUTION.

 NO OUTPUT CONTROL FOR STRESS PERIOD   25   TIME STEP 3632

 -------------------------------------------------------------------------------
                             SWR1 OUTPUT PRINT TIMES
                        STRESS PERIOD   25   TIME STEP  3632
 --------------- --------------- --------------- --------------- ---------------
     0.52224E+06                                                                
 -------------------------------------------------------------------------------
 
 SOLVING FOR HEAD 
 INITIAL HNEW IS AN EXACT SOLUTION.

 NO OUTPUT CONTROL FOR STRESS PERIOD   25   TIME STEP 3633

 -------------------------------------------------------------------------------
                             SWR1 OUTPUT PRINT TIMES
                        STRESS PERIOD   25   TIME STEP  3633
 --------------- --------------- --------------- --------------- ---------------
     0.52236E+06                                                                
 -------------------------------------------------------------------------------
 
 SOLVING FOR HEAD 
 INITIAL HNEW IS AN EXACT SOLUTION.

 NO OUTPUT CONTROL FOR STRESS PERIOD   25   TIME STEP 3634

 -------------------------------------------------------------------------------
                             SWR1 OUTPUT PRINT TIMES
                        STRESS PERIOD   25   TIME STEP  3634
 --------------- --------------- --------------- --------------- ---------------
     0.52248E+06                                                                
 -------------------------------------------------------------------------------
 
 SOLVING FOR HEAD 
 INITIAL HNEW IS AN EXACT SOLUTION.

 NO OUTPUT CONTROL FOR STRESS PERIOD   25   TIME STEP 3635

 -------------------------------------------------------------------------------
                             SWR1 OUTPUT PRINT TIMES
                        STRESS PERIOD   25   TIME STEP  3635
 --------------- --------------- --------------- --------------- ---------------
     0.52260E+06                                                                
 -------------------------------------------------------------------------------
 
 SOLVING FOR HEAD 
 INITIAL HNEW IS AN EXACT SOLUTION.

 NO OUTPUT CONTROL FOR STRESS PERIOD   25   TIME STEP 3636

 -------------------------------------------------------------------------------
                             SWR1 OUTPUT PRINT TIMES
                        STRESS PERIOD   25   TIME STEP  3636
 --------------- --------------- --------------- --------------- ---------------
     0.52272E+06                                                                
 -------------------------------------------------------------------------------
 
 SOLVING FOR HEAD 
 INITIAL HNEW IS AN EXACT SOLUTION.

 NO OUTPUT CONTROL FOR STRESS PERIOD   25   TIME STEP 3637

 -------------------------------------------------------------------------------
                             SWR1 OUTPUT PRINT TIMES
                        STRESS PERIOD   25   TIME STEP  3637
 --------------- --------------- --------------- --------------- ---------------
     0.52284E+06                                                                
 -------------------------------------------------------------------------------
 
 SOLVING FOR HEAD 
 INITIAL HNEW IS AN EXACT SOLUTION.

 NO OUTPUT CONTROL FOR STRESS PERIOD   25   TIME STEP 3638

 -------------------------------------------------------------------------------
                             SWR1 OUTPUT PRINT TIMES
                        STRESS PERIOD   25   TIME STEP  3638
 --------------- --------------- --------------- --------------- ---------------
     0.52296E+06                                                                
 -------------------------------------------------------------------------------
 
 SOLVING FOR HEAD 
 INITIAL HNEW IS AN EXACT SOLUTION.

 NO OUTPUT CONTROL FOR STRESS PERIOD   25   TIME STEP 3639

 -------------------------------------------------------------------------------
                             SWR1 OUTPUT PRINT TIMES
                        STRESS PERIOD   25   TIME STEP  3639
 --------------- --------------- --------------- --------------- ---------------
     0.52308E+06                                                                
 -------------------------------------------------------------------------------
 
 SOLVING FOR HEAD 
 INITIAL HNEW IS AN EXACT SOLUTION.

 NO OUTPUT CONTROL FOR STRESS PERIOD   25   TIME STEP 3640

 -------------------------------------------------------------------------------
                             SWR1 OUTPUT PRINT TIMES
                        STRESS PERIOD   25   TIME STEP  3640
 --------------- --------------- --------------- --------------- ---------------
     0.52320E+06                                                                
 -------------------------------------------------------------------------------
 
 SOLVING FOR HEAD 
 INITIAL HNEW IS AN EXACT SOLUTION.

 NO OUTPUT CONTROL FOR STRESS PERIOD   25   TIME STEP 3641

 -------------------------------------------------------------------------------
                             SWR1 OUTPUT PRINT TIMES
                        STRESS PERIOD   25   TIME STEP  3641
 --------------- --------------- --------------- --------------- ---------------
     0.52332E+06                                                                
 -------------------------------------------------------------------------------
 
 SOLVING FOR HEAD 
 INITIAL HNEW IS AN EXACT SOLUTION.

 NO OUTPUT CONTROL FOR STRESS PERIOD   25   TIME STEP 3642

 -------------------------------------------------------------------------------
                             SWR1 OUTPUT PRINT TIMES
                        STRESS PERIOD   25   TIME STEP  3642
 --------------- --------------- --------------- --------------- ---------------
     0.52344E+06                                                                
 -------------------------------------------------------------------------------
 
 SOLVING FOR HEAD 
 INITIAL HNEW IS AN EXACT SOLUTION.

 NO OUTPUT CONTROL FOR STRESS PERIOD   25   TIME STEP 3643

 -------------------------------------------------------------------------------
                             SWR1 OUTPUT PRINT TIMES
                        STRESS PERIOD   25   TIME STEP  3643
 --------------- --------------- --------------- --------------- ---------------
     0.52356E+06                                                                
 -------------------------------------------------------------------------------
 
 SOLVING FOR HEAD 
 INITIAL HNEW IS AN EXACT SOLUTION.

 NO OUTPUT CONTROL FOR STRESS PERIOD   25   TIME STEP 3644

 -------------------------------------------------------------------------------
                             SWR1 OUTPUT PRINT TIMES
                        STRESS PERIOD   25   TIME STEP  3644
 --------------- --------------- --------------- --------------- ---------------
     0.52368E+06                                                                
 -------------------------------------------------------------------------------
 
 SOLVING FOR HEAD 
 INITIAL HNEW IS AN EXACT SOLUTION.

 NO OUTPUT CONTROL FOR STRESS PERIOD   25   TIME STEP 3645

 -------------------------------------------------------------------------------
                             SWR1 OUTPUT PRINT TIMES
                        STRESS PERIOD   25   TIME STEP  3645
 --------------- --------------- --------------- --------------- ---------------
     0.52380E+06                                                                
 -------------------------------------------------------------------------------
 
 SOLVING FOR HEAD 
 INITIAL HNEW IS AN EXACT SOLUTION.

 NO OUTPUT CONTROL FOR STRESS PERIOD   25   TIME STEP 3646

 -------------------------------------------------------------------------------
                             SWR1 OUTPUT PRINT TIMES
                        STRESS PERIOD   25   TIME STEP  3646
 --------------- --------------- --------------- --------------- ---------------
     0.52392E+06                                                                
 -------------------------------------------------------------------------------
 
 SOLVING FOR HEAD 
 INITIAL HNEW IS AN EXACT SOLUTION.

 NO OUTPUT CONTROL FOR STRESS PERIOD   25   TIME STEP 3647

 -------------------------------------------------------------------------------
                             SWR1 OUTPUT PRINT TIMES
                        STRESS PERIOD   25   TIME STEP  3647
 --------------- --------------- --------------- --------------- ---------------
     0.52404E+06                                                                
 -------------------------------------------------------------------------------
 
 SOLVING FOR HEAD 
 INITIAL HNEW IS AN EXACT SOLUTION.

 NO OUTPUT CONTROL FOR STRESS PERIOD   25   TIME STEP 3648

 -------------------------------------------------------------------------------
                             SWR1 OUTPUT PRINT TIMES
                        STRESS PERIOD   25   TIME STEP  3648
 --------------- --------------- --------------- --------------- ---------------
     0.52416E+06                                                                
 -------------------------------------------------------------------------------
 
 SOLVING FOR HEAD 
 INITIAL HNEW IS AN EXACT SOLUTION.

 NO OUTPUT CONTROL FOR STRESS PERIOD   25   TIME STEP 3649

 -------------------------------------------------------------------------------
                             SWR1 OUTPUT PRINT TIMES
                        STRESS PERIOD   25   TIME STEP  3649
 --------------- --------------- --------------- --------------- ---------------
     0.52428E+06                                                                
 -------------------------------------------------------------------------------
 
 SOLVING FOR HEAD 
 INITIAL HNEW IS AN EXACT SOLUTION.

 NO OUTPUT CONTROL FOR STRESS PERIOD   25   TIME STEP 3650

 -------------------------------------------------------------------------------
                             SWR1 OUTPUT PRINT TIMES
                        STRESS PERIOD   25   TIME STEP  3650
 --------------- --------------- --------------- --------------- ---------------
     0.52440E+06                                                                
 -------------------------------------------------------------------------------
 
 SOLVING FOR HEAD 
 INITIAL HNEW IS AN EXACT SOLUTION.

 NO OUTPUT CONTROL FOR STRESS PERIOD   25   TIME STEP 3651

 -------------------------------------------------------------------------------
                             SWR1 OUTPUT PRINT TIMES
                        STRESS PERIOD   25   TIME STEP  3651
 --------------- --------------- --------------- --------------- ---------------
     0.52452E+06                                                                
 -------------------------------------------------------------------------------
 
 SOLVING FOR HEAD 
 INITIAL HNEW IS AN EXACT SOLUTION.

 NO OUTPUT CONTROL FOR STRESS PERIOD   25   TIME STEP 3652

 -------------------------------------------------------------------------------
                             SWR1 OUTPUT PRINT TIMES
                        STRESS PERIOD   25   TIME STEP  3652
 --------------- --------------- --------------- --------------- ---------------
     0.52464E+06                                                                
 -------------------------------------------------------------------------------
 
 SOLVING FOR HEAD 
 INITIAL HNEW IS AN EXACT SOLUTION.

 NO OUTPUT CONTROL FOR STRESS PERIOD   25   TIME STEP 3653

 -------------------------------------------------------------------------------
                             SWR1 OUTPUT PRINT TIMES
                        STRESS PERIOD   25   TIME STEP  3653
 --------------- --------------- --------------- --------------- ---------------
     0.52476E+06                                                                
 -------------------------------------------------------------------------------
 
 SOLVING FOR HEAD 
 INITIAL HNEW IS AN EXACT SOLUTION.

 NO OUTPUT CONTROL FOR STRESS PERIOD   25   TIME STEP 3654

 -------------------------------------------------------------------------------
                             SWR1 OUTPUT PRINT TIMES
                        STRESS PERIOD   25   TIME STEP  3654
 --------------- --------------- --------------- --------------- ---------------
     0.52488E+06                                                                
 -------------------------------------------------------------------------------
 
 SOLVING FOR HEAD 
 INITIAL HNEW IS AN EXACT SOLUTION.

 NO OUTPUT CONTROL FOR STRESS PERIOD   25   TIME STEP 3655

 -------------------------------------------------------------------------------
                             SWR1 OUTPUT PRINT TIMES
                        STRESS PERIOD   25   TIME STEP  3655
 --------------- --------------- --------------- --------------- ---------------
     0.52500E+06                                                                
 -------------------------------------------------------------------------------
 
 SOLVING FOR HEAD 
 INITIAL HNEW IS AN EXACT SOLUTION.

 NO OUTPUT CONTROL FOR STRESS PERIOD   25   TIME STEP 3656

 -------------------------------------------------------------------------------
                             SWR1 OUTPUT PRINT TIMES
                        STRESS PERIOD   25   TIME STEP  3656
 --------------- --------------- --------------- --------------- ---------------
     0.52512E+06                                                                
 -------------------------------------------------------------------------------
 
 SOLVING FOR HEAD 
 INITIAL HNEW IS AN EXACT SOLUTION.

 NO OUTPUT CONTROL FOR STRESS PERIOD   25   TIME STEP 3657

 -------------------------------------------------------------------------------
                             SWR1 OUTPUT PRINT TIMES
                        STRESS PERIOD   25   TIME STEP  3657
 --------------- --------------- --------------- --------------- ---------------
     0.52524E+06                                                                
 -------------------------------------------------------------------------------
 
 SOLVING FOR HEAD 
 INITIAL HNEW IS AN EXACT SOLUTION.

 NO OUTPUT CONTROL FOR STRESS PERIOD   25   TIME STEP 3658

 -------------------------------------------------------------------------------
                             SWR1 OUTPUT PRINT TIMES
                        STRESS PERIOD   25   TIME STEP  3658
 --------------- --------------- --------------- --------------- ---------------
     0.52536E+06                                                                
 -------------------------------------------------------------------------------
 
 SOLVING FOR HEAD 
 INITIAL HNEW IS AN EXACT SOLUTION.

 NO OUTPUT CONTROL FOR STRESS PERIOD   25   TIME STEP 3659

 -------------------------------------------------------------------------------
                             SWR1 OUTPUT PRINT TIMES
                        STRESS PERIOD   25   TIME STEP  3659
 --------------- --------------- --------------- --------------- ---------------
     0.52548E+06                                                                
 -------------------------------------------------------------------------------
 
 SOLVING FOR HEAD 
 INITIAL HNEW IS AN EXACT SOLUTION.

 NO OUTPUT CONTROL FOR STRESS PERIOD   25   TIME STEP 3660

 -------------------------------------------------------------------------------
                             SWR1 OUTPUT PRINT TIMES
                        STRESS PERIOD   25   TIME STEP  3660
 --------------- --------------- --------------- --------------- ---------------
     0.52560E+06                                                                
 -------------------------------------------------------------------------------
 
 SOLVING FOR HEAD 
 INITIAL HNEW IS AN EXACT SOLUTION.

 NO OUTPUT CONTROL FOR STRESS PERIOD   25   TIME STEP 3661

 -------------------------------------------------------------------------------
                             SWR1 OUTPUT PRINT TIMES
                        STRESS PERIOD   25   TIME STEP  3661
 --------------- --------------- --------------- --------------- ---------------
     0.52572E+06                                                                
 -------------------------------------------------------------------------------
 
 SOLVING FOR HEAD 
 INITIAL HNEW IS AN EXACT SOLUTION.

 NO OUTPUT CONTROL FOR STRESS PERIOD   25   TIME STEP 3662

 -------------------------------------------------------------------------------
                             SWR1 OUTPUT PRINT TIMES
                        STRESS PERIOD   25   TIME STEP  3662
 --------------- --------------- --------------- --------------- ---------------
     0.52584E+06                                                                
 -------------------------------------------------------------------------------
 
 SOLVING FOR HEAD 
 INITIAL HNEW IS AN EXACT SOLUTION.

 NO OUTPUT CONTROL FOR STRESS PERIOD   25   TIME STEP 3663

 -------------------------------------------------------------------------------
                             SWR1 OUTPUT PRINT TIMES
                        STRESS PERIOD   25   TIME STEP  3663
 --------------- --------------- --------------- --------------- ---------------
     0.52596E+06                                                                
 -------------------------------------------------------------------------------
 
 SOLVING FOR HEAD 
 INITIAL HNEW IS AN EXACT SOLUTION.

 NO OUTPUT CONTROL FOR STRESS PERIOD   25   TIME STEP 3664

 -------------------------------------------------------------------------------
                             SWR1 OUTPUT PRINT TIMES
                        STRESS PERIOD   25   TIME STEP  3664
 --------------- --------------- --------------- --------------- ---------------
     0.52608E+06                                                                
 -------------------------------------------------------------------------------
 
 SOLVING FOR HEAD 
 INITIAL HNEW IS AN EXACT SOLUTION.

 NO OUTPUT CONTROL FOR STRESS PERIOD   25   TIME STEP 3665

 -------------------------------------------------------------------------------
                             SWR1 OUTPUT PRINT TIMES
                        STRESS PERIOD   25   TIME STEP  3665
 --------------- --------------- --------------- --------------- ---------------
     0.52620E+06                                                                
 -------------------------------------------------------------------------------
 
 SOLVING FOR HEAD 
 INITIAL HNEW IS AN EXACT SOLUTION.

 NO OUTPUT CONTROL FOR STRESS PERIOD   25   TIME STEP 3666

 -------------------------------------------------------------------------------
                             SWR1 OUTPUT PRINT TIMES
                        STRESS PERIOD   25   TIME STEP  3666
 --------------- --------------- --------------- --------------- ---------------
     0.52632E+06                                                                
 -------------------------------------------------------------------------------
 
 SOLVING FOR HEAD 
 INITIAL HNEW IS AN EXACT SOLUTION.

 NO OUTPUT CONTROL FOR STRESS PERIOD   25   TIME STEP 3667

 -------------------------------------------------------------------------------
                             SWR1 OUTPUT PRINT TIMES
                        STRESS PERIOD   25   TIME STEP  3667
 --------------- --------------- --------------- --------------- ---------------
     0.52644E+06                                                                
 -------------------------------------------------------------------------------
 
 SOLVING FOR HEAD 
 INITIAL HNEW IS AN EXACT SOLUTION.

 NO OUTPUT CONTROL FOR STRESS PERIOD   25   TIME STEP 3668

 -------------------------------------------------------------------------------
                             SWR1 OUTPUT PRINT TIMES
                        STRESS PERIOD   25   TIME STEP  3668
 --------------- --------------- --------------- --------------- ---------------
     0.52656E+06                                                                
 -------------------------------------------------------------------------------
 
 SOLVING FOR HEAD 
 INITIAL HNEW IS AN EXACT SOLUTION.

 NO OUTPUT CONTROL FOR STRESS PERIOD   25   TIME STEP 3669

 -------------------------------------------------------------------------------
                             SWR1 OUTPUT PRINT TIMES
                        STRESS PERIOD   25   TIME STEP  3669
 --------------- --------------- --------------- --------------- ---------------
     0.52668E+06                                                                
 -------------------------------------------------------------------------------
 
 SOLVING FOR HEAD 
 INITIAL HNEW IS AN EXACT SOLUTION.

 NO OUTPUT CONTROL FOR STRESS PERIOD   25   TIME STEP 3670

 -------------------------------------------------------------------------------
                             SWR1 OUTPUT PRINT TIMES
                        STRESS PERIOD   25   TIME STEP  3670
 --------------- --------------- --------------- --------------- ---------------
     0.52680E+06                                                                
 -------------------------------------------------------------------------------
 
 SOLVING FOR HEAD 
 INITIAL HNEW IS AN EXACT SOLUTION.

 NO OUTPUT CONTROL FOR STRESS PERIOD   25   TIME STEP 3671

 -------------------------------------------------------------------------------
                             SWR1 OUTPUT PRINT TIMES
                        STRESS PERIOD   25   TIME STEP  3671
 --------------- --------------- --------------- --------------- ---------------
     0.52692E+06                                                                
 -------------------------------------------------------------------------------
 
 SOLVING FOR HEAD 
 INITIAL HNEW IS AN EXACT SOLUTION.

 NO OUTPUT CONTROL FOR STRESS PERIOD   25   TIME STEP 3672

 -------------------------------------------------------------------------------
                             SWR1 OUTPUT PRINT TIMES
                        STRESS PERIOD   25   TIME STEP  3672
 --------------- --------------- --------------- --------------- ---------------
     0.52704E+06                                                                
 -------------------------------------------------------------------------------
 
 SOLVING FOR HEAD 
 INITIAL HNEW IS AN EXACT SOLUTION.

 NO OUTPUT CONTROL FOR STRESS PERIOD   25   TIME STEP 3673

 -------------------------------------------------------------------------------
                             SWR1 OUTPUT PRINT TIMES
                        STRESS PERIOD   25   TIME STEP  3673
 --------------- --------------- --------------- --------------- ---------------
     0.52716E+06                                                                
 -------------------------------------------------------------------------------
 
 SOLVING FOR HEAD 
 INITIAL HNEW IS AN EXACT SOLUTION.

 NO OUTPUT CONTROL FOR STRESS PERIOD   25   TIME STEP 3674

 -------------------------------------------------------------------------------
                             SWR1 OUTPUT PRINT TIMES
                        STRESS PERIOD   25   TIME STEP  3674
 --------------- --------------- --------------- --------------- ---------------
     0.52728E+06                                                                
 -------------------------------------------------------------------------------
 
 SOLVING FOR HEAD 
 INITIAL HNEW IS AN EXACT SOLUTION.

 NO OUTPUT CONTROL FOR STRESS PERIOD   25   TIME STEP 3675

 -------------------------------------------------------------------------------
                             SWR1 OUTPUT PRINT TIMES
                        STRESS PERIOD   25   TIME STEP  3675
 --------------- --------------- --------------- --------------- ---------------
     0.52740E+06                                                                
 -------------------------------------------------------------------------------
 
 SOLVING FOR HEAD 
 INITIAL HNEW IS AN EXACT SOLUTION.

 NO OUTPUT CONTROL FOR STRESS PERIOD   25   TIME STEP 3676

 -------------------------------------------------------------------------------
                             SWR1 OUTPUT PRINT TIMES
                        STRESS PERIOD   25   TIME STEP  3676
 --------------- --------------- --------------- --------------- ---------------
     0.52752E+06                                                                
 -------------------------------------------------------------------------------
 
 SOLVING FOR HEAD 
 INITIAL HNEW IS AN EXACT SOLUTION.

 NO OUTPUT CONTROL FOR STRESS PERIOD   25   TIME STEP 3677

 -------------------------------------------------------------------------------
                             SWR1 OUTPUT PRINT TIMES
                        STRESS PERIOD   25   TIME STEP  3677
 --------------- --------------- --------------- --------------- ---------------
     0.52764E+06                                                                
 -------------------------------------------------------------------------------
 
 SOLVING FOR HEAD 
 INITIAL HNEW IS AN EXACT SOLUTION.

 NO OUTPUT CONTROL FOR STRESS PERIOD   25   TIME STEP 3678

 -------------------------------------------------------------------------------
                             SWR1 OUTPUT PRINT TIMES
                        STRESS PERIOD   25   TIME STEP  3678
 --------------- --------------- --------------- --------------- ---------------
     0.52776E+06                                                                
 -------------------------------------------------------------------------------
 
 SOLVING FOR HEAD 
 INITIAL HNEW IS AN EXACT SOLUTION.

 NO OUTPUT CONTROL FOR STRESS PERIOD   25   TIME STEP 3679

 -------------------------------------------------------------------------------
                             SWR1 OUTPUT PRINT TIMES
                        STRESS PERIOD   25   TIME STEP  3679
 --------------- --------------- --------------- --------------- ---------------
     0.52788E+06                                                                
 -------------------------------------------------------------------------------
 
 SOLVING FOR HEAD 
 INITIAL HNEW IS AN EXACT SOLUTION.

 NO OUTPUT CONTROL FOR STRESS PERIOD   25   TIME STEP 3680

 -------------------------------------------------------------------------------
                             SWR1 OUTPUT PRINT TIMES
                        STRESS PERIOD   25   TIME STEP  3680
 --------------- --------------- --------------- --------------- ---------------
     0.52800E+06                                                                
 -------------------------------------------------------------------------------
 
 SOLVING FOR HEAD 
 INITIAL HNEW IS AN EXACT SOLUTION.

 NO OUTPUT CONTROL FOR STRESS PERIOD   25   TIME STEP 3681

 -------------------------------------------------------------------------------
                             SWR1 OUTPUT PRINT TIMES
                        STRESS PERIOD   25   TIME STEP  3681
 --------------- --------------- --------------- --------------- ---------------
     0.52812E+06                                                                
 -------------------------------------------------------------------------------
 
 SOLVING FOR HEAD 
 INITIAL HNEW IS AN EXACT SOLUTION.

 NO OUTPUT CONTROL FOR STRESS PERIOD   25   TIME STEP 3682

 -------------------------------------------------------------------------------
                             SWR1 OUTPUT PRINT TIMES
                        STRESS PERIOD   25   TIME STEP  3682
 --------------- --------------- --------------- --------------- ---------------
     0.52824E+06                                                                
 -------------------------------------------------------------------------------
 
 SOLVING FOR HEAD 
 INITIAL HNEW IS AN EXACT SOLUTION.

 NO OUTPUT CONTROL FOR STRESS PERIOD   25   TIME STEP 3683

 -------------------------------------------------------------------------------
                             SWR1 OUTPUT PRINT TIMES
                        STRESS PERIOD   25   TIME STEP  3683
 --------------- --------------- --------------- --------------- ---------------
     0.52836E+06                                                                
 -------------------------------------------------------------------------------
 
 SOLVING FOR HEAD 
 INITIAL HNEW IS AN EXACT SOLUTION.

 NO OUTPUT CONTROL FOR STRESS PERIOD   25   TIME STEP 3684

 -------------------------------------------------------------------------------
                             SWR1 OUTPUT PRINT TIMES
                        STRESS PERIOD   25   TIME STEP  3684
 --------------- --------------- --------------- --------------- ---------------
     0.52848E+06                                                                
 -------------------------------------------------------------------------------
 
 SOLVING FOR HEAD 
 INITIAL HNEW IS AN EXACT SOLUTION.

 NO OUTPUT CONTROL FOR STRESS PERIOD   25   TIME STEP 3685

 -------------------------------------------------------------------------------
                             SWR1 OUTPUT PRINT TIMES
                        STRESS PERIOD   25   TIME STEP  3685
 --------------- --------------- --------------- --------------- ---------------
     0.52860E+06                                                                
 -------------------------------------------------------------------------------
 
 SOLVING FOR HEAD 
 INITIAL HNEW IS AN EXACT SOLUTION.

 NO OUTPUT CONTROL FOR STRESS PERIOD   25   TIME STEP 3686

 -------------------------------------------------------------------------------
                             SWR1 OUTPUT PRINT TIMES
                        STRESS PERIOD   25   TIME STEP  3686
 --------------- --------------- --------------- --------------- ---------------
     0.52872E+06                                                                
 -------------------------------------------------------------------------------
 
 SOLVING FOR HEAD 
 INITIAL HNEW IS AN EXACT SOLUTION.

 NO OUTPUT CONTROL FOR STRESS PERIOD   25   TIME STEP 3687

 -------------------------------------------------------------------------------
                             SWR1 OUTPUT PRINT TIMES
                        STRESS PERIOD   25   TIME STEP  3687
 --------------- --------------- --------------- --------------- ---------------
     0.52884E+06                                                                
 -------------------------------------------------------------------------------
 
 SOLVING FOR HEAD 
 INITIAL HNEW IS AN EXACT SOLUTION.

 NO OUTPUT CONTROL FOR STRESS PERIOD   25   TIME STEP 3688

 -------------------------------------------------------------------------------
                             SWR1 OUTPUT PRINT TIMES
                        STRESS PERIOD   25   TIME STEP  3688
 --------------- --------------- --------------- --------------- ---------------
     0.52896E+06                                                                
 -------------------------------------------------------------------------------
 
 SOLVING FOR HEAD 
 INITIAL HNEW IS AN EXACT SOLUTION.

 NO OUTPUT CONTROL FOR STRESS PERIOD   25   TIME STEP 3689

 -------------------------------------------------------------------------------
                             SWR1 OUTPUT PRINT TIMES
                        STRESS PERIOD   25   TIME STEP  3689
 --------------- --------------- --------------- --------------- ---------------
     0.52908E+06                                                                
 -------------------------------------------------------------------------------
 
 SOLVING FOR HEAD 
 INITIAL HNEW IS AN EXACT SOLUTION.

 NO OUTPUT CONTROL FOR STRESS PERIOD   25   TIME STEP 3690

 -------------------------------------------------------------------------------
                             SWR1 OUTPUT PRINT TIMES
                        STRESS PERIOD   25   TIME STEP  3690
 --------------- --------------- --------------- --------------- ---------------
     0.52920E+06                                                                
 -------------------------------------------------------------------------------
 
 SOLVING FOR HEAD 
 INITIAL HNEW IS AN EXACT SOLUTION.

 NO OUTPUT CONTROL FOR STRESS PERIOD   25   TIME STEP 3691

 -------------------------------------------------------------------------------
                             SWR1 OUTPUT PRINT TIMES
                        STRESS PERIOD   25   TIME STEP  3691
 --------------- --------------- --------------- --------------- ---------------
     0.52932E+06                                                                
 -------------------------------------------------------------------------------
 
 SOLVING FOR HEAD 
 INITIAL HNEW IS AN EXACT SOLUTION.

 NO OUTPUT CONTROL FOR STRESS PERIOD   25   TIME STEP 3692

 -------------------------------------------------------------------------------
                             SWR1 OUTPUT PRINT TIMES
                        STRESS PERIOD   25   TIME STEP  3692
 --------------- --------------- --------------- --------------- ---------------
     0.52944E+06                                                                
 -------------------------------------------------------------------------------
 
 SOLVING FOR HEAD 
 INITIAL HNEW IS AN EXACT SOLUTION.

 NO OUTPUT CONTROL FOR STRESS PERIOD   25   TIME STEP 3693

 -------------------------------------------------------------------------------
                             SWR1 OUTPUT PRINT TIMES
                        STRESS PERIOD   25   TIME STEP  3693
 --------------- --------------- --------------- --------------- ---------------
     0.52956E+06                                                                
 -------------------------------------------------------------------------------
 
 SOLVING FOR HEAD 
 INITIAL HNEW IS AN EXACT SOLUTION.

 NO OUTPUT CONTROL FOR STRESS PERIOD   25   TIME STEP 3694

 -------------------------------------------------------------------------------
                             SWR1 OUTPUT PRINT TIMES
                        STRESS PERIOD   25   TIME STEP  3694
 --------------- --------------- --------------- --------------- ---------------
     0.52968E+06                                                                
 -------------------------------------------------------------------------------
 
 SOLVING FOR HEAD 
 INITIAL HNEW IS AN EXACT SOLUTION.

 NO OUTPUT CONTROL FOR STRESS PERIOD   25   TIME STEP 3695

 -------------------------------------------------------------------------------
                             SWR1 OUTPUT PRINT TIMES
                        STRESS PERIOD   25   TIME STEP  3695
 --------------- --------------- --------------- --------------- ---------------
     0.52980E+06                                                                
 -------------------------------------------------------------------------------
 
 SOLVING FOR HEAD 
 INITIAL HNEW IS AN EXACT SOLUTION.

 NO OUTPUT CONTROL FOR STRESS PERIOD   25   TIME STEP 3696

 -------------------------------------------------------------------------------
                             SWR1 OUTPUT PRINT TIMES
                        STRESS PERIOD   25   TIME STEP  3696
 --------------- --------------- --------------- --------------- ---------------
     0.52992E+06                                                                
 -------------------------------------------------------------------------------
 
 SOLVING FOR HEAD 
 INITIAL HNEW IS AN EXACT SOLUTION.

 NO OUTPUT CONTROL FOR STRESS PERIOD   25   TIME STEP 3697

 -------------------------------------------------------------------------------
                             SWR1 OUTPUT PRINT TIMES
                        STRESS PERIOD   25   TIME STEP  3697
 --------------- --------------- --------------- --------------- ---------------
     0.53004E+06                                                                
 -------------------------------------------------------------------------------
 
 SOLVING FOR HEAD 
 INITIAL HNEW IS AN EXACT SOLUTION.

 NO OUTPUT CONTROL FOR STRESS PERIOD   25   TIME STEP 3698

 -------------------------------------------------------------------------------
                             SWR1 OUTPUT PRINT TIMES
                        STRESS PERIOD   25   TIME STEP  3698
 --------------- --------------- --------------- --------------- ---------------
     0.53016E+06                                                                
 -------------------------------------------------------------------------------
 
 SOLVING FOR HEAD 
 INITIAL HNEW IS AN EXACT SOLUTION.

 NO OUTPUT CONTROL FOR STRESS PERIOD   25   TIME STEP 3699

 -------------------------------------------------------------------------------
                             SWR1 OUTPUT PRINT TIMES
                        STRESS PERIOD   25   TIME STEP  3699
 --------------- --------------- --------------- --------------- ---------------
     0.53028E+06                                                                
 -------------------------------------------------------------------------------
 
 SOLVING FOR HEAD 
 INITIAL HNEW IS AN EXACT SOLUTION.

 NO OUTPUT CONTROL FOR STRESS PERIOD   25   TIME STEP 3700

 -------------------------------------------------------------------------------
                             SWR1 OUTPUT PRINT TIMES
                        STRESS PERIOD   25   TIME STEP  3700
 --------------- --------------- --------------- --------------- ---------------
     0.53040E+06                                                                
 -------------------------------------------------------------------------------
 
 SOLVING FOR HEAD 
 INITIAL HNEW IS AN EXACT SOLUTION.

 NO OUTPUT CONTROL FOR STRESS PERIOD   25   TIME STEP 3701

 -------------------------------------------------------------------------------
                             SWR1 OUTPUT PRINT TIMES
                        STRESS PERIOD   25   TIME STEP  3701
 --------------- --------------- --------------- --------------- ---------------
     0.53052E+06                                                                
 -------------------------------------------------------------------------------
 
 SOLVING FOR HEAD 
 INITIAL HNEW IS AN EXACT SOLUTION.

 NO OUTPUT CONTROL FOR STRESS PERIOD   25   TIME STEP 3702

 -------------------------------------------------------------------------------
                             SWR1 OUTPUT PRINT TIMES
                        STRESS PERIOD   25   TIME STEP  3702
 --------------- --------------- --------------- --------------- ---------------
     0.53064E+06                                                                
 -------------------------------------------------------------------------------
 
 SOLVING FOR HEAD 
 INITIAL HNEW IS AN EXACT SOLUTION.

 NO OUTPUT CONTROL FOR STRESS PERIOD   25   TIME STEP 3703

 -------------------------------------------------------------------------------
                             SWR1 OUTPUT PRINT TIMES
                        STRESS PERIOD   25   TIME STEP  3703
 --------------- --------------- --------------- --------------- ---------------
     0.53076E+06                                                                
 -------------------------------------------------------------------------------
 
 SOLVING FOR HEAD 
 INITIAL HNEW IS AN EXACT SOLUTION.

 NO OUTPUT CONTROL FOR STRESS PERIOD   25   TIME STEP 3704

 -------------------------------------------------------------------------------
                             SWR1 OUTPUT PRINT TIMES
                        STRESS PERIOD   25   TIME STEP  3704
 --------------- --------------- --------------- --------------- ---------------
     0.53088E+06                                                                
 -------------------------------------------------------------------------------
 
 SOLVING FOR HEAD 
 INITIAL HNEW IS AN EXACT SOLUTION.

 NO OUTPUT CONTROL FOR STRESS PERIOD   25   TIME STEP 3705

 -------------------------------------------------------------------------------
                             SWR1 OUTPUT PRINT TIMES
                        STRESS PERIOD   25   TIME STEP  3705
 --------------- --------------- --------------- --------------- ---------------
     0.53100E+06                                                                
 -------------------------------------------------------------------------------
 
 SOLVING FOR HEAD 
 INITIAL HNEW IS AN EXACT SOLUTION.

 NO OUTPUT CONTROL FOR STRESS PERIOD   25   TIME STEP 3706

 -------------------------------------------------------------------------------
                             SWR1 OUTPUT PRINT TIMES
                        STRESS PERIOD   25   TIME STEP  3706
 --------------- --------------- --------------- --------------- ---------------
     0.53112E+06                                                                
 -------------------------------------------------------------------------------
 
 SOLVING FOR HEAD 
 INITIAL HNEW IS AN EXACT SOLUTION.

 NO OUTPUT CONTROL FOR STRESS PERIOD   25   TIME STEP 3707

 -------------------------------------------------------------------------------
                             SWR1 OUTPUT PRINT TIMES
                        STRESS PERIOD   25   TIME STEP  3707
 --------------- --------------- --------------- --------------- ---------------
     0.53124E+06                                                                
 -------------------------------------------------------------------------------
 
 SOLVING FOR HEAD 
 INITIAL HNEW IS AN EXACT SOLUTION.

 NO OUTPUT CONTROL FOR STRESS PERIOD   25   TIME STEP 3708

 -------------------------------------------------------------------------------
                             SWR1 OUTPUT PRINT TIMES
                        STRESS PERIOD   25   TIME STEP  3708
 --------------- --------------- --------------- --------------- ---------------
     0.53136E+06                                                                
 -------------------------------------------------------------------------------
 
 SOLVING FOR HEAD 
 INITIAL HNEW IS AN EXACT SOLUTION.

 NO OUTPUT CONTROL FOR STRESS PERIOD   25   TIME STEP 3709

 -------------------------------------------------------------------------------
                             SWR1 OUTPUT PRINT TIMES
                        STRESS PERIOD   25   TIME STEP  3709
 --------------- --------------- --------------- --------------- ---------------
     0.53148E+06                                                                
 -------------------------------------------------------------------------------
 
 SOLVING FOR HEAD 
 INITIAL HNEW IS AN EXACT SOLUTION.

 NO OUTPUT CONTROL FOR STRESS PERIOD   25   TIME STEP 3710

 -------------------------------------------------------------------------------
                             SWR1 OUTPUT PRINT TIMES
                        STRESS PERIOD   25   TIME STEP  3710
 --------------- --------------- --------------- --------------- ---------------
     0.53160E+06                                                                
 -------------------------------------------------------------------------------
 
 SOLVING FOR HEAD 
 INITIAL HNEW IS AN EXACT SOLUTION.

 NO OUTPUT CONTROL FOR STRESS PERIOD   25   TIME STEP 3711

 -------------------------------------------------------------------------------
                             SWR1 OUTPUT PRINT TIMES
                        STRESS PERIOD   25   TIME STEP  3711
 --------------- --------------- --------------- --------------- ---------------
     0.53172E+06                                                                
 -------------------------------------------------------------------------------
 
 SOLVING FOR HEAD 
 INITIAL HNEW IS AN EXACT SOLUTION.

 NO OUTPUT CONTROL FOR STRESS PERIOD   25   TIME STEP 3712

 -------------------------------------------------------------------------------
                             SWR1 OUTPUT PRINT TIMES
                        STRESS PERIOD   25   TIME STEP  3712
 --------------- --------------- --------------- --------------- ---------------
     0.53184E+06                                                                
 -------------------------------------------------------------------------------
 
 SOLVING FOR HEAD 
 INITIAL HNEW IS AN EXACT SOLUTION.

 NO OUTPUT CONTROL FOR STRESS PERIOD   25   TIME STEP 3713

 -------------------------------------------------------------------------------
                             SWR1 OUTPUT PRINT TIMES
                        STRESS PERIOD   25   TIME STEP  3713
 --------------- --------------- --------------- --------------- ---------------
     0.53196E+06                                                                
 -------------------------------------------------------------------------------
 
 SOLVING FOR HEAD 
 INITIAL HNEW IS AN EXACT SOLUTION.

 NO OUTPUT CONTROL FOR STRESS PERIOD   25   TIME STEP 3714

 -------------------------------------------------------------------------------
                             SWR1 OUTPUT PRINT TIMES
                        STRESS PERIOD   25   TIME STEP  3714
 --------------- --------------- --------------- --------------- ---------------
     0.53208E+06                                                                
 -------------------------------------------------------------------------------
 
 SOLVING FOR HEAD 
 INITIAL HNEW IS AN EXACT SOLUTION.

 NO OUTPUT CONTROL FOR STRESS PERIOD   25   TIME STEP 3715

 -------------------------------------------------------------------------------
                             SWR1 OUTPUT PRINT TIMES
                        STRESS PERIOD   25   TIME STEP  3715
 --------------- --------------- --------------- --------------- ---------------
     0.53220E+06                                                                
 -------------------------------------------------------------------------------
 
 SOLVING FOR HEAD 
 INITIAL HNEW IS AN EXACT SOLUTION.

 NO OUTPUT CONTROL FOR STRESS PERIOD   25   TIME STEP 3716

 -------------------------------------------------------------------------------
                             SWR1 OUTPUT PRINT TIMES
                        STRESS PERIOD   25   TIME STEP  3716
 --------------- --------------- --------------- --------------- ---------------
     0.53232E+06                                                                
 -------------------------------------------------------------------------------
 
 SOLVING FOR HEAD 
 INITIAL HNEW IS AN EXACT SOLUTION.

 NO OUTPUT CONTROL FOR STRESS PERIOD   25   TIME STEP 3717

 -------------------------------------------------------------------------------
                             SWR1 OUTPUT PRINT TIMES
                        STRESS PERIOD   25   TIME STEP  3717
 --------------- --------------- --------------- --------------- ---------------
     0.53244E+06                                                                
 -------------------------------------------------------------------------------
 
 SOLVING FOR HEAD 
 INITIAL HNEW IS AN EXACT SOLUTION.

 NO OUTPUT CONTROL FOR STRESS PERIOD   25   TIME STEP 3718

 -------------------------------------------------------------------------------
                             SWR1 OUTPUT PRINT TIMES
                        STRESS PERIOD   25   TIME STEP  3718
 --------------- --------------- --------------- --------------- ---------------
     0.53256E+06                                                                
 -------------------------------------------------------------------------------
 
 SOLVING FOR HEAD 
 INITIAL HNEW IS AN EXACT SOLUTION.

 NO OUTPUT CONTROL FOR STRESS PERIOD   25   TIME STEP 3719

 -------------------------------------------------------------------------------
                             SWR1 OUTPUT PRINT TIMES
                        STRESS PERIOD   25   TIME STEP  3719
 --------------- --------------- --------------- --------------- ---------------
     0.53268E+06                                                                
 -------------------------------------------------------------------------------
 
 SOLVING FOR HEAD 
 INITIAL HNEW IS AN EXACT SOLUTION.

 NO OUTPUT CONTROL FOR STRESS PERIOD   25   TIME STEP 3720

 -------------------------------------------------------------------------------
                             SWR1 OUTPUT PRINT TIMES
                        STRESS PERIOD   25   TIME STEP  3720
 --------------- --------------- --------------- --------------- ---------------
     0.53280E+06                                                                
 -------------------------------------------------------------------------------
 
 SOLVING FOR HEAD 
 INITIAL HNEW IS AN EXACT SOLUTION.

 NO OUTPUT CONTROL FOR STRESS PERIOD   25   TIME STEP 3721

 -------------------------------------------------------------------------------
                             SWR1 OUTPUT PRINT TIMES
                        STRESS PERIOD   25   TIME STEP  3721
 --------------- --------------- --------------- --------------- ---------------
     0.53292E+06                                                                
 -------------------------------------------------------------------------------
 
 SOLVING FOR HEAD 
 INITIAL HNEW IS AN EXACT SOLUTION.

 NO OUTPUT CONTROL FOR STRESS PERIOD   25   TIME STEP 3722

 -------------------------------------------------------------------------------
                             SWR1 OUTPUT PRINT TIMES
                        STRESS PERIOD   25   TIME STEP  3722
 --------------- --------------- --------------- --------------- ---------------
     0.53304E+06                                                                
 -------------------------------------------------------------------------------
 
 SOLVING FOR HEAD 
 INITIAL HNEW IS AN EXACT SOLUTION.

 NO OUTPUT CONTROL FOR STRESS PERIOD   25   TIME STEP 3723

 -------------------------------------------------------------------------------
                             SWR1 OUTPUT PRINT TIMES
                        STRESS PERIOD   25   TIME STEP  3723
 --------------- --------------- --------------- --------------- ---------------
     0.53316E+06                                                                
 -------------------------------------------------------------------------------
 
 SOLVING FOR HEAD 
 INITIAL HNEW IS AN EXACT SOLUTION.

 NO OUTPUT CONTROL FOR STRESS PERIOD   25   TIME STEP 3724

 -------------------------------------------------------------------------------
                             SWR1 OUTPUT PRINT TIMES
                        STRESS PERIOD   25   TIME STEP  3724
 --------------- --------------- --------------- --------------- ---------------
     0.53328E+06                                                                
 -------------------------------------------------------------------------------
 
 SOLVING FOR HEAD 
 INITIAL HNEW IS AN EXACT SOLUTION.

 NO OUTPUT CONTROL FOR STRESS PERIOD   25   TIME STEP 3725

 -------------------------------------------------------------------------------
                             SWR1 OUTPUT PRINT TIMES
                        STRESS PERIOD   25   TIME STEP  3725
 --------------- --------------- --------------- --------------- ---------------
     0.53340E+06                                                                
 -------------------------------------------------------------------------------
 
 SOLVING FOR HEAD 
 INITIAL HNEW IS AN EXACT SOLUTION.

 NO OUTPUT CONTROL FOR STRESS PERIOD   25   TIME STEP 3726

 -------------------------------------------------------------------------------
                             SWR1 OUTPUT PRINT TIMES
                        STRESS PERIOD   25   TIME STEP  3726
 --------------- --------------- --------------- --------------- ---------------
     0.53352E+06                                                                
 -------------------------------------------------------------------------------
 
 SOLVING FOR HEAD 
 INITIAL HNEW IS AN EXACT SOLUTION.

 NO OUTPUT CONTROL FOR STRESS PERIOD   25   TIME STEP 3727

 -------------------------------------------------------------------------------
                             SWR1 OUTPUT PRINT TIMES
                        STRESS PERIOD   25   TIME STEP  3727
 --------------- --------------- --------------- --------------- ---------------
     0.53364E+06                                                                
 -------------------------------------------------------------------------------
 
 SOLVING FOR HEAD 
 INITIAL HNEW IS AN EXACT SOLUTION.

 NO OUTPUT CONTROL FOR STRESS PERIOD   25   TIME STEP 3728

 -------------------------------------------------------------------------------
                             SWR1 OUTPUT PRINT TIMES
                        STRESS PERIOD   25   TIME STEP  3728
 --------------- --------------- --------------- --------------- ---------------
     0.53376E+06                                                                
 -------------------------------------------------------------------------------
 
 SOLVING FOR HEAD 
 INITIAL HNEW IS AN EXACT SOLUTION.

 NO OUTPUT CONTROL FOR STRESS PERIOD   25   TIME STEP 3729

 -------------------------------------------------------------------------------
                             SWR1 OUTPUT PRINT TIMES
                        STRESS PERIOD   25   TIME STEP  3729
 --------------- --------------- --------------- --------------- ---------------
     0.53388E+06                                                                
 -------------------------------------------------------------------------------
 
 SOLVING FOR HEAD 
 INITIAL HNEW IS AN EXACT SOLUTION.

 NO OUTPUT CONTROL FOR STRESS PERIOD   25   TIME STEP 3730

 -------------------------------------------------------------------------------
                             SWR1 OUTPUT PRINT TIMES
                        STRESS PERIOD   25   TIME STEP  3730
 --------------- --------------- --------------- --------------- ---------------
     0.53400E+06                                                                
 -------------------------------------------------------------------------------
 
 SOLVING FOR HEAD 
 INITIAL HNEW IS AN EXACT SOLUTION.

 NO OUTPUT CONTROL FOR STRESS PERIOD   25   TIME STEP 3731

 -------------------------------------------------------------------------------
                             SWR1 OUTPUT PRINT TIMES
                        STRESS PERIOD   25   TIME STEP  3731
 --------------- --------------- --------------- --------------- ---------------
     0.53412E+06                                                                
 -------------------------------------------------------------------------------
 
 SOLVING FOR HEAD 
 INITIAL HNEW IS AN EXACT SOLUTION.

 NO OUTPUT CONTROL FOR STRESS PERIOD   25   TIME STEP 3732

 -------------------------------------------------------------------------------
                             SWR1 OUTPUT PRINT TIMES
                        STRESS PERIOD   25   TIME STEP  3732
 --------------- --------------- --------------- --------------- ---------------
     0.53424E+06                                                                
 -------------------------------------------------------------------------------
 
 SOLVING FOR HEAD 
 INITIAL HNEW IS AN EXACT SOLUTION.

 NO OUTPUT CONTROL FOR STRESS PERIOD   25   TIME STEP 3733

 -------------------------------------------------------------------------------
                             SWR1 OUTPUT PRINT TIMES
                        STRESS PERIOD   25   TIME STEP  3733
 --------------- --------------- --------------- --------------- ---------------
     0.53436E+06                                                                
 -------------------------------------------------------------------------------
 
 SOLVING FOR HEAD 
 INITIAL HNEW IS AN EXACT SOLUTION.

 NO OUTPUT CONTROL FOR STRESS PERIOD   25   TIME STEP 3734

 -------------------------------------------------------------------------------
                             SWR1 OUTPUT PRINT TIMES
                        STRESS PERIOD   25   TIME STEP  3734
 --------------- --------------- --------------- --------------- ---------------
     0.53448E+06                                                                
 -------------------------------------------------------------------------------
 
 SOLVING FOR HEAD 
 INITIAL HNEW IS AN EXACT SOLUTION.

 NO OUTPUT CONTROL FOR STRESS PERIOD   25   TIME STEP 3735

 -------------------------------------------------------------------------------
                             SWR1 OUTPUT PRINT TIMES
                        STRESS PERIOD   25   TIME STEP  3735
 --------------- --------------- --------------- --------------- ---------------
     0.53460E+06                                                                
 -------------------------------------------------------------------------------
 
 SOLVING FOR HEAD 
 INITIAL HNEW IS AN EXACT SOLUTION.

 NO OUTPUT CONTROL FOR STRESS PERIOD   25   TIME STEP 3736

 -------------------------------------------------------------------------------
                             SWR1 OUTPUT PRINT TIMES
                        STRESS PERIOD   25   TIME STEP  3736
 --------------- --------------- --------------- --------------- ---------------
     0.53472E+06                                                                
 -------------------------------------------------------------------------------
 
 SOLVING FOR HEAD 
 INITIAL HNEW IS AN EXACT SOLUTION.

 NO OUTPUT CONTROL FOR STRESS PERIOD   25   TIME STEP 3737

 -------------------------------------------------------------------------------
                             SWR1 OUTPUT PRINT TIMES
                        STRESS PERIOD   25   TIME STEP  3737
 --------------- --------------- --------------- --------------- ---------------
     0.53484E+06                                                                
 -------------------------------------------------------------------------------
 
 SOLVING FOR HEAD 
 INITIAL HNEW IS AN EXACT SOLUTION.

 NO OUTPUT CONTROL FOR STRESS PERIOD   25   TIME STEP 3738

 -------------------------------------------------------------------------------
                             SWR1 OUTPUT PRINT TIMES
                        STRESS PERIOD   25   TIME STEP  3738
 --------------- --------------- --------------- --------------- ---------------
     0.53496E+06                                                                
 -------------------------------------------------------------------------------
 
 SOLVING FOR HEAD 
 INITIAL HNEW IS AN EXACT SOLUTION.

 NO OUTPUT CONTROL FOR STRESS PERIOD   25   TIME STEP 3739

 -------------------------------------------------------------------------------
                             SWR1 OUTPUT PRINT TIMES
                        STRESS PERIOD   25   TIME STEP  3739
 --------------- --------------- --------------- --------------- ---------------
     0.53508E+06                                                                
 -------------------------------------------------------------------------------
 
 SOLVING FOR HEAD 
 INITIAL HNEW IS AN EXACT SOLUTION.

 NO OUTPUT CONTROL FOR STRESS PERIOD   25   TIME STEP 3740

 -------------------------------------------------------------------------------
                             SWR1 OUTPUT PRINT TIMES
                        STRESS PERIOD   25   TIME STEP  3740
 --------------- --------------- --------------- --------------- ---------------
     0.53520E+06                                                                
 -------------------------------------------------------------------------------
 
 SOLVING FOR HEAD 
 INITIAL HNEW IS AN EXACT SOLUTION.

 NO OUTPUT CONTROL FOR STRESS PERIOD   25   TIME STEP 3741

 -------------------------------------------------------------------------------
                             SWR1 OUTPUT PRINT TIMES
                        STRESS PERIOD   25   TIME STEP  3741
 --------------- --------------- --------------- --------------- ---------------
     0.53532E+06                                                                
 -------------------------------------------------------------------------------
 
 SOLVING FOR HEAD 
 INITIAL HNEW IS AN EXACT SOLUTION.

 NO OUTPUT CONTROL FOR STRESS PERIOD   25   TIME STEP 3742

 -------------------------------------------------------------------------------
                             SWR1 OUTPUT PRINT TIMES
                        STRESS PERIOD   25   TIME STEP  3742
 --------------- --------------- --------------- --------------- ---------------
     0.53544E+06                                                                
 -------------------------------------------------------------------------------
 
 SOLVING FOR HEAD 
 INITIAL HNEW IS AN EXACT SOLUTION.

 NO OUTPUT CONTROL FOR STRESS PERIOD   25   TIME STEP 3743

 -------------------------------------------------------------------------------
                             SWR1 OUTPUT PRINT TIMES
                        STRESS PERIOD   25   TIME STEP  3743
 --------------- --------------- --------------- --------------- ---------------
     0.53556E+06                                                                
 -------------------------------------------------------------------------------
 
 SOLVING FOR HEAD 
 INITIAL HNEW IS AN EXACT SOLUTION.

 NO OUTPUT CONTROL FOR STRESS PERIOD   25   TIME STEP 3744

 -------------------------------------------------------------------------------
                             SWR1 OUTPUT PRINT TIMES
                        STRESS PERIOD   25   TIME STEP  3744
 --------------- --------------- --------------- --------------- ---------------
     0.53568E+06                                                                
 -------------------------------------------------------------------------------
 
 SOLVING FOR HEAD 
 INITIAL HNEW IS AN EXACT SOLUTION.

 NO OUTPUT CONTROL FOR STRESS PERIOD   25   TIME STEP 3745

 -------------------------------------------------------------------------------
                             SWR1 OUTPUT PRINT TIMES
                        STRESS PERIOD   25   TIME STEP  3745
 --------------- --------------- --------------- --------------- ---------------
     0.53580E+06                                                                
 -------------------------------------------------------------------------------
 
 SOLVING FOR HEAD 
 INITIAL HNEW IS AN EXACT SOLUTION.

 NO OUTPUT CONTROL FOR STRESS PERIOD   25   TIME STEP 3746

 -------------------------------------------------------------------------------
                             SWR1 OUTPUT PRINT TIMES
                        STRESS PERIOD   25   TIME STEP  3746
 --------------- --------------- --------------- --------------- ---------------
     0.53592E+06                                                                
 -------------------------------------------------------------------------------
 
 SOLVING FOR HEAD 
 INITIAL HNEW IS AN EXACT SOLUTION.

 NO OUTPUT CONTROL FOR STRESS PERIOD   25   TIME STEP 3747

 -------------------------------------------------------------------------------
                             SWR1 OUTPUT PRINT TIMES
                        STRESS PERIOD   25   TIME STEP  3747
 --------------- --------------- --------------- --------------- ---------------
     0.53604E+06                                                                
 -------------------------------------------------------------------------------
 
 SOLVING FOR HEAD 
 INITIAL HNEW IS AN EXACT SOLUTION.

 NO OUTPUT CONTROL FOR STRESS PERIOD   25   TIME STEP 3748

 -------------------------------------------------------------------------------
                             SWR1 OUTPUT PRINT TIMES
                        STRESS PERIOD   25   TIME STEP  3748
 --------------- --------------- --------------- --------------- ---------------
     0.53616E+06                                                                
 -------------------------------------------------------------------------------
 
 SOLVING FOR HEAD 
 INITIAL HNEW IS AN EXACT SOLUTION.

 NO OUTPUT CONTROL FOR STRESS PERIOD   25   TIME STEP 3749

 -------------------------------------------------------------------------------
                             SWR1 OUTPUT PRINT TIMES
                        STRESS PERIOD   25   TIME STEP  3749
 --------------- --------------- --------------- --------------- ---------------
     0.53628E+06                                                                
 -------------------------------------------------------------------------------
 
 SOLVING FOR HEAD 
 INITIAL HNEW IS AN EXACT SOLUTION.

 NO OUTPUT CONTROL FOR STRESS PERIOD   25   TIME STEP 3750

 -------------------------------------------------------------------------------
                             SWR1 OUTPUT PRINT TIMES
                        STRESS PERIOD   25   TIME STEP  3750
 --------------- --------------- --------------- --------------- ---------------
     0.53640E+06                                                                
 -------------------------------------------------------------------------------
 
 SOLVING FOR HEAD 
 INITIAL HNEW IS AN EXACT SOLUTION.

 NO OUTPUT CONTROL FOR STRESS PERIOD   25   TIME STEP 3751

 -------------------------------------------------------------------------------
                             SWR1 OUTPUT PRINT TIMES
                        STRESS PERIOD   25   TIME STEP  3751
 --------------- --------------- --------------- --------------- ---------------
     0.53652E+06                                                                
 -------------------------------------------------------------------------------
 
 SOLVING FOR HEAD 
 INITIAL HNEW IS AN EXACT SOLUTION.

 NO OUTPUT CONTROL FOR STRESS PERIOD   25   TIME STEP 3752

 -------------------------------------------------------------------------------
                             SWR1 OUTPUT PRINT TIMES
                        STRESS PERIOD   25   TIME STEP  3752
 --------------- --------------- --------------- --------------- ---------------
     0.53664E+06                                                                
 -------------------------------------------------------------------------------
 
 SOLVING FOR HEAD 
 INITIAL HNEW IS AN EXACT SOLUTION.

 NO OUTPUT CONTROL FOR STRESS PERIOD   25   TIME STEP 3753

 -------------------------------------------------------------------------------
                             SWR1 OUTPUT PRINT TIMES
                        STRESS PERIOD   25   TIME STEP  3753
 --------------- --------------- --------------- --------------- ---------------
     0.53676E+06                                                                
 -------------------------------------------------------------------------------
 
 SOLVING FOR HEAD 
 INITIAL HNEW IS AN EXACT SOLUTION.

 NO OUTPUT CONTROL FOR STRESS PERIOD   25   TIME STEP 3754

 -------------------------------------------------------------------------------
                             SWR1 OUTPUT PRINT TIMES
                        STRESS PERIOD   25   TIME STEP  3754
 --------------- --------------- --------------- --------------- ---------------
     0.53688E+06                                                                
 -------------------------------------------------------------------------------
 
 SOLVING FOR HEAD 
 INITIAL HNEW IS AN EXACT SOLUTION.

 NO OUTPUT CONTROL FOR STRESS PERIOD   25   TIME STEP 3755

 -------------------------------------------------------------------------------
                             SWR1 OUTPUT PRINT TIMES
                        STRESS PERIOD   25   TIME STEP  3755
 --------------- --------------- --------------- --------------- ---------------
     0.53700E+06                                                                
 -------------------------------------------------------------------------------
 
 SOLVING FOR HEAD 
 INITIAL HNEW IS AN EXACT SOLUTION.

 NO OUTPUT CONTROL FOR STRESS PERIOD   25   TIME STEP 3756

 -------------------------------------------------------------------------------
                             SWR1 OUTPUT PRINT TIMES
                        STRESS PERIOD   25   TIME STEP  3756
 --------------- --------------- --------------- --------------- ---------------
     0.53712E+06                                                                
 -------------------------------------------------------------------------------
 
 SOLVING FOR HEAD 
 INITIAL HNEW IS AN EXACT SOLUTION.

 NO OUTPUT CONTROL FOR STRESS PERIOD   25   TIME STEP 3757

 -------------------------------------------------------------------------------
                             SWR1 OUTPUT PRINT TIMES
                        STRESS PERIOD   25   TIME STEP  3757
 --------------- --------------- --------------- --------------- ---------------
     0.53724E+06                                                                
 -------------------------------------------------------------------------------
 
 SOLVING FOR HEAD 
 INITIAL HNEW IS AN EXACT SOLUTION.

 NO OUTPUT CONTROL FOR STRESS PERIOD   25   TIME STEP 3758

 -------------------------------------------------------------------------------
                             SWR1 OUTPUT PRINT TIMES
                        STRESS PERIOD   25   TIME STEP  3758
 --------------- --------------- --------------- --------------- ---------------
     0.53736E+06                                                                
 -------------------------------------------------------------------------------
 
 SOLVING FOR HEAD 
 INITIAL HNEW IS AN EXACT SOLUTION.

 NO OUTPUT CONTROL FOR STRESS PERIOD   25   TIME STEP 3759

 -------------------------------------------------------------------------------
                             SWR1 OUTPUT PRINT TIMES
                        STRESS PERIOD   25   TIME STEP  3759
 --------------- --------------- --------------- --------------- ---------------
     0.53748E+06                                                                
 -------------------------------------------------------------------------------
 
 SOLVING FOR HEAD 
 INITIAL HNEW IS AN EXACT SOLUTION.

 NO OUTPUT CONTROL FOR STRESS PERIOD   25   TIME STEP 3760

 -------------------------------------------------------------------------------
                             SWR1 OUTPUT PRINT TIMES
                        STRESS PERIOD   25   TIME STEP  3760
 --------------- --------------- --------------- --------------- ---------------
     0.53760E+06                                                                
 -------------------------------------------------------------------------------
 
 SOLVING FOR HEAD 
 INITIAL HNEW IS AN EXACT SOLUTION.

 NO OUTPUT CONTROL FOR STRESS PERIOD   25   TIME STEP 3761

 -------------------------------------------------------------------------------
                             SWR1 OUTPUT PRINT TIMES
                        STRESS PERIOD   25   TIME STEP  3761
 --------------- --------------- --------------- --------------- ---------------
     0.53772E+06                                                                
 -------------------------------------------------------------------------------
 
 SOLVING FOR HEAD 
 INITIAL HNEW IS AN EXACT SOLUTION.

 NO OUTPUT CONTROL FOR STRESS PERIOD   25   TIME STEP 3762

 -------------------------------------------------------------------------------
                             SWR1 OUTPUT PRINT TIMES
                        STRESS PERIOD   25   TIME STEP  3762
 --------------- --------------- --------------- --------------- ---------------
     0.53784E+06                                                                
 -------------------------------------------------------------------------------
 
 SOLVING FOR HEAD 
 INITIAL HNEW IS AN EXACT SOLUTION.

 NO OUTPUT CONTROL FOR STRESS PERIOD   25   TIME STEP 3763

 -------------------------------------------------------------------------------
                             SWR1 OUTPUT PRINT TIMES
                        STRESS PERIOD   25   TIME STEP  3763
 --------------- --------------- --------------- --------------- ---------------
     0.53796E+06                                                                
 -------------------------------------------------------------------------------
 
 SOLVING FOR HEAD 
 INITIAL HNEW IS AN EXACT SOLUTION.

 NO OUTPUT CONTROL FOR STRESS PERIOD   25   TIME STEP 3764

 -------------------------------------------------------------------------------
                             SWR1 OUTPUT PRINT TIMES
                        STRESS PERIOD   25   TIME STEP  3764
 --------------- --------------- --------------- --------------- ---------------
     0.53808E+06                                                                
 -------------------------------------------------------------------------------
 
 SOLVING FOR HEAD 
 INITIAL HNEW IS AN EXACT SOLUTION.

 NO OUTPUT CONTROL FOR STRESS PERIOD   25   TIME STEP 3765

 -------------------------------------------------------------------------------
                             SWR1 OUTPUT PRINT TIMES
                        STRESS PERIOD   25   TIME STEP  3765
 --------------- --------------- --------------- --------------- ---------------
     0.53820E+06                                                                
 -------------------------------------------------------------------------------
 
 SOLVING FOR HEAD 
 INITIAL HNEW IS AN EXACT SOLUTION.

 NO OUTPUT CONTROL FOR STRESS PERIOD   25   TIME STEP 3766

 -------------------------------------------------------------------------------
                             SWR1 OUTPUT PRINT TIMES
                        STRESS PERIOD   25   TIME STEP  3766
 --------------- --------------- --------------- --------------- ---------------
     0.53832E+06                                                                
 -------------------------------------------------------------------------------
 
 SOLVING FOR HEAD 
 INITIAL HNEW IS AN EXACT SOLUTION.

 NO OUTPUT CONTROL FOR STRESS PERIOD   25   TIME STEP 3767

 -------------------------------------------------------------------------------
                             SWR1 OUTPUT PRINT TIMES
                        STRESS PERIOD   25   TIME STEP  3767
 --------------- --------------- --------------- --------------- ---------------
     0.53844E+06                                                                
 -------------------------------------------------------------------------------
 
 SOLVING FOR HEAD 
 INITIAL HNEW IS AN EXACT SOLUTION.

 NO OUTPUT CONTROL FOR STRESS PERIOD   25   TIME STEP 3768

 -------------------------------------------------------------------------------
                             SWR1 OUTPUT PRINT TIMES
                        STRESS PERIOD   25   TIME STEP  3768
 --------------- --------------- --------------- --------------- ---------------
     0.53856E+06                                                                
 -------------------------------------------------------------------------------
 
 SOLVING FOR HEAD 
 INITIAL HNEW IS AN EXACT SOLUTION.

 NO OUTPUT CONTROL FOR STRESS PERIOD   25   TIME STEP 3769

 -------------------------------------------------------------------------------
                             SWR1 OUTPUT PRINT TIMES
                        STRESS PERIOD   25   TIME STEP  3769
 --------------- --------------- --------------- --------------- ---------------
     0.53868E+06                                                                
 -------------------------------------------------------------------------------
 
 SOLVING FOR HEAD 
 INITIAL HNEW IS AN EXACT SOLUTION.

 NO OUTPUT CONTROL FOR STRESS PERIOD   25   TIME STEP 3770

 -------------------------------------------------------------------------------
                             SWR1 OUTPUT PRINT TIMES
                        STRESS PERIOD   25   TIME STEP  3770
 --------------- --------------- --------------- --------------- ---------------
     0.53880E+06                                                                
 -------------------------------------------------------------------------------
 
 SOLVING FOR HEAD 
 INITIAL HNEW IS AN EXACT SOLUTION.

 NO OUTPUT CONTROL FOR STRESS PERIOD   25   TIME STEP 3771

 -------------------------------------------------------------------------------
                             SWR1 OUTPUT PRINT TIMES
                        STRESS PERIOD   25   TIME STEP  3771
 --------------- --------------- --------------- --------------- ---------------
     0.53892E+06                                                                
 -------------------------------------------------------------------------------
 
 SOLVING FOR HEAD 
 INITIAL HNEW IS AN EXACT SOLUTION.

 NO OUTPUT CONTROL FOR STRESS PERIOD   25   TIME STEP 3772

 -------------------------------------------------------------------------------
                             SWR1 OUTPUT PRINT TIMES
                        STRESS PERIOD   25   TIME STEP  3772
 --------------- --------------- --------------- --------------- ---------------
     0.53904E+06                                                                
 -------------------------------------------------------------------------------
 
 SOLVING FOR HEAD 
 INITIAL HNEW IS AN EXACT SOLUTION.

 NO OUTPUT CONTROL FOR STRESS PERIOD   25   TIME STEP 3773

 -------------------------------------------------------------------------------
                             SWR1 OUTPUT PRINT TIMES
                        STRESS PERIOD   25   TIME STEP  3773
 --------------- --------------- --------------- --------------- ---------------
     0.53916E+06                                                                
 -------------------------------------------------------------------------------
 
 SOLVING FOR HEAD 
 INITIAL HNEW IS AN EXACT SOLUTION.

 NO OUTPUT CONTROL FOR STRESS PERIOD   25   TIME STEP 3774

 -------------------------------------------------------------------------------
                             SWR1 OUTPUT PRINT TIMES
                        STRESS PERIOD   25   TIME STEP  3774
 --------------- --------------- --------------- --------------- ---------------
     0.53928E+06                                                                
 -------------------------------------------------------------------------------
 
 SOLVING FOR HEAD 
 INITIAL HNEW IS AN EXACT SOLUTION.

 NO OUTPUT CONTROL FOR STRESS PERIOD   25   TIME STEP 3775

 -------------------------------------------------------------------------------
                             SWR1 OUTPUT PRINT TIMES
                        STRESS PERIOD   25   TIME STEP  3775
 --------------- --------------- --------------- --------------- ---------------
     0.53940E+06                                                                
 -------------------------------------------------------------------------------
 
 SOLVING FOR HEAD 
 INITIAL HNEW IS AN EXACT SOLUTION.

 NO OUTPUT CONTROL FOR STRESS PERIOD   25   TIME STEP 3776

 -------------------------------------------------------------------------------
                             SWR1 OUTPUT PRINT TIMES
                        STRESS PERIOD   25   TIME STEP  3776
 --------------- --------------- --------------- --------------- ---------------
     0.53952E+06                                                                
 -------------------------------------------------------------------------------
 
 SOLVING FOR HEAD 
 INITIAL HNEW IS AN EXACT SOLUTION.

 NO OUTPUT CONTROL FOR STRESS PERIOD   25   TIME STEP 3777

 -------------------------------------------------------------------------------
                             SWR1 OUTPUT PRINT TIMES
                        STRESS PERIOD   25   TIME STEP  3777
 --------------- --------------- --------------- --------------- ---------------
     0.53964E+06                                                                
 -------------------------------------------------------------------------------
 
 SOLVING FOR HEAD 
 INITIAL HNEW IS AN EXACT SOLUTION.

 NO OUTPUT CONTROL FOR STRESS PERIOD   25   TIME STEP 3778

 -------------------------------------------------------------------------------
                             SWR1 OUTPUT PRINT TIMES
                        STRESS PERIOD   25   TIME STEP  3778
 --------------- --------------- --------------- --------------- ---------------
     0.53976E+06                                                                
 -------------------------------------------------------------------------------
 
 SOLVING FOR HEAD 
 INITIAL HNEW IS AN EXACT SOLUTION.

 NO OUTPUT CONTROL FOR STRESS PERIOD   25   TIME STEP 3779

 -------------------------------------------------------------------------------
                             SWR1 OUTPUT PRINT TIMES
                        STRESS PERIOD   25   TIME STEP  3779
 --------------- --------------- --------------- --------------- ---------------
     0.53988E+06                                                                
 -------------------------------------------------------------------------------
 
 SOLVING FOR HEAD 
 INITIAL HNEW IS AN EXACT SOLUTION.

 NO OUTPUT CONTROL FOR STRESS PERIOD   25   TIME STEP 3780

 -------------------------------------------------------------------------------
                             SWR1 OUTPUT PRINT TIMES
                        STRESS PERIOD   25   TIME STEP  3780
 --------------- --------------- --------------- --------------- ---------------
     0.54000E+06                                                                
 -------------------------------------------------------------------------------
 
 SOLVING FOR HEAD 
 INITIAL HNEW IS AN EXACT SOLUTION.

 NO OUTPUT CONTROL FOR STRESS PERIOD   25   TIME STEP 3781

 -------------------------------------------------------------------------------
                             SWR1 OUTPUT PRINT TIMES
                        STRESS PERIOD   25   TIME STEP  3781
 --------------- --------------- --------------- --------------- ---------------
     0.54012E+06                                                                
 -------------------------------------------------------------------------------
 
 SOLVING FOR HEAD 
 INITIAL HNEW IS AN EXACT SOLUTION.

 NO OUTPUT CONTROL FOR STRESS PERIOD   25   TIME STEP 3782

 -------------------------------------------------------------------------------
                             SWR1 OUTPUT PRINT TIMES
                        STRESS PERIOD   25   TIME STEP  3782
 --------------- --------------- --------------- --------------- ---------------
     0.54024E+06                                                                
 -------------------------------------------------------------------------------
 
 SOLVING FOR HEAD 
 INITIAL HNEW IS AN EXACT SOLUTION.

 NO OUTPUT CONTROL FOR STRESS PERIOD   25   TIME STEP 3783

 -------------------------------------------------------------------------------
                             SWR1 OUTPUT PRINT TIMES
                        STRESS PERIOD   25   TIME STEP  3783
 --------------- --------------- --------------- --------------- ---------------
     0.54036E+06                                                                
 -------------------------------------------------------------------------------
 
 SOLVING FOR HEAD 
 INITIAL HNEW IS AN EXACT SOLUTION.

 NO OUTPUT CONTROL FOR STRESS PERIOD   25   TIME STEP 3784

 -------------------------------------------------------------------------------
                             SWR1 OUTPUT PRINT TIMES
                        STRESS PERIOD   25   TIME STEP  3784
 --------------- --------------- --------------- --------------- ---------------
     0.54048E+06                                                                
 -------------------------------------------------------------------------------
 
 SOLVING FOR HEAD 
 INITIAL HNEW IS AN EXACT SOLUTION.

 NO OUTPUT CONTROL FOR STRESS PERIOD   25   TIME STEP 3785

 -------------------------------------------------------------------------------
                             SWR1 OUTPUT PRINT TIMES
                        STRESS PERIOD   25   TIME STEP  3785
 --------------- --------------- --------------- --------------- ---------------
     0.54060E+06                                                                
 -------------------------------------------------------------------------------
 
 SOLVING FOR HEAD 
 INITIAL HNEW IS AN EXACT SOLUTION.

 NO OUTPUT CONTROL FOR STRESS PERIOD   25   TIME STEP 3786

 -------------------------------------------------------------------------------
                             SWR1 OUTPUT PRINT TIMES
                        STRESS PERIOD   25   TIME STEP  3786
 --------------- --------------- --------------- --------------- ---------------
     0.54072E+06                                                                
 -------------------------------------------------------------------------------
 
 SOLVING FOR HEAD 
 INITIAL HNEW IS AN EXACT SOLUTION.

 NO OUTPUT CONTROL FOR STRESS PERIOD   25   TIME STEP 3787

 -------------------------------------------------------------------------------
                             SWR1 OUTPUT PRINT TIMES
                        STRESS PERIOD   25   TIME STEP  3787
 --------------- --------------- --------------- --------------- ---------------
     0.54084E+06                                                                
 -------------------------------------------------------------------------------
 
 SOLVING FOR HEAD 
 INITIAL HNEW IS AN EXACT SOLUTION.

 NO OUTPUT CONTROL FOR STRESS PERIOD   25   TIME STEP 3788

 -------------------------------------------------------------------------------
                             SWR1 OUTPUT PRINT TIMES
                        STRESS PERIOD   25   TIME STEP  3788
 --------------- --------------- --------------- --------------- ---------------
     0.54096E+06                                                                
 -------------------------------------------------------------------------------
 
 SOLVING FOR HEAD 
 INITIAL HNEW IS AN EXACT SOLUTION.

 NO OUTPUT CONTROL FOR STRESS PERIOD   25   TIME STEP 3789

 -------------------------------------------------------------------------------
                             SWR1 OUTPUT PRINT TIMES
                        STRESS PERIOD   25   TIME STEP  3789
 --------------- --------------- --------------- --------------- ---------------
     0.54108E+06                                                                
 -------------------------------------------------------------------------------
 
 SOLVING FOR HEAD 
 INITIAL HNEW IS AN EXACT SOLUTION.

 NO OUTPUT CONTROL FOR STRESS PERIOD   25   TIME STEP 3790

 -------------------------------------------------------------------------------
                             SWR1 OUTPUT PRINT TIMES
                        STRESS PERIOD   25   TIME STEP  3790
 --------------- --------------- --------------- --------------- ---------------
     0.54120E+06                                                                
 -------------------------------------------------------------------------------
 
 SOLVING FOR HEAD 
 INITIAL HNEW IS AN EXACT SOLUTION.

 NO OUTPUT CONTROL FOR STRESS PERIOD   25   TIME STEP 3791

 -------------------------------------------------------------------------------
                             SWR1 OUTPUT PRINT TIMES
                        STRESS PERIOD   25   TIME STEP  3791
 --------------- --------------- --------------- --------------- ---------------
     0.54132E+06                                                                
 -------------------------------------------------------------------------------
 
 SOLVING FOR HEAD 
 INITIAL HNEW IS AN EXACT SOLUTION.

 NO OUTPUT CONTROL FOR STRESS PERIOD   25   TIME STEP 3792

 -------------------------------------------------------------------------------
                             SWR1 OUTPUT PRINT TIMES
                        STRESS PERIOD   25   TIME STEP  3792
 --------------- --------------- --------------- --------------- ---------------
     0.54144E+06                                                                
 -------------------------------------------------------------------------------
 
 SOLVING FOR HEAD 
 INITIAL HNEW IS AN EXACT SOLUTION.

 NO OUTPUT CONTROL FOR STRESS PERIOD   25   TIME STEP 3793

 -------------------------------------------------------------------------------
                             SWR1 OUTPUT PRINT TIMES
                        STRESS PERIOD   25   TIME STEP  3793
 --------------- --------------- --------------- --------------- ---------------
     0.54156E+06                                                                
 -------------------------------------------------------------------------------
 
 SOLVING FOR HEAD 
 INITIAL HNEW IS AN EXACT SOLUTION.

 NO OUTPUT CONTROL FOR STRESS PERIOD   25   TIME STEP 3794

 -------------------------------------------------------------------------------
                             SWR1 OUTPUT PRINT TIMES
                        STRESS PERIOD   25   TIME STEP  3794
 --------------- --------------- --------------- --------------- ---------------
     0.54168E+06                                                                
 -------------------------------------------------------------------------------
 
 SOLVING FOR HEAD 
 INITIAL HNEW IS AN EXACT SOLUTION.

 NO OUTPUT CONTROL FOR STRESS PERIOD   25   TIME STEP 3795

 -------------------------------------------------------------------------------
                             SWR1 OUTPUT PRINT TIMES
                        STRESS PERIOD   25   TIME STEP  3795
 --------------- --------------- --------------- --------------- ---------------
     0.54180E+06                                                                
 -------------------------------------------------------------------------------
 
 SOLVING FOR HEAD 
 INITIAL HNEW IS AN EXACT SOLUTION.

 NO OUTPUT CONTROL FOR STRESS PERIOD   25   TIME STEP 3796

 -------------------------------------------------------------------------------
                             SWR1 OUTPUT PRINT TIMES
                        STRESS PERIOD   25   TIME STEP  3796
 --------------- --------------- --------------- --------------- ---------------
     0.54192E+06                                                                
 -------------------------------------------------------------------------------
 
 SOLVING FOR HEAD 
 INITIAL HNEW IS AN EXACT SOLUTION.

 NO OUTPUT CONTROL FOR STRESS PERIOD   25   TIME STEP 3797

 -------------------------------------------------------------------------------
                             SWR1 OUTPUT PRINT TIMES
                        STRESS PERIOD   25   TIME STEP  3797
 --------------- --------------- --------------- --------------- ---------------
     0.54204E+06                                                                
 -------------------------------------------------------------------------------
 
 SOLVING FOR HEAD 
 INITIAL HNEW IS AN EXACT SOLUTION.

 NO OUTPUT CONTROL FOR STRESS PERIOD   25   TIME STEP 3798

 -------------------------------------------------------------------------------
                             SWR1 OUTPUT PRINT TIMES
                        STRESS PERIOD   25   TIME STEP  3798
 --------------- --------------- --------------- --------------- ---------------
     0.54216E+06                                                                
 -------------------------------------------------------------------------------
 
 SOLVING FOR HEAD 
 INITIAL HNEW IS AN EXACT SOLUTION.

 NO OUTPUT CONTROL FOR STRESS PERIOD   25   TIME STEP 3799

 -------------------------------------------------------------------------------
                             SWR1 OUTPUT PRINT TIMES
                        STRESS PERIOD   25   TIME STEP  3799
 --------------- --------------- --------------- --------------- ---------------
     0.54228E+06                                                                
 -------------------------------------------------------------------------------
 
 SOLVING FOR HEAD 
 INITIAL HNEW IS AN EXACT SOLUTION.

 NO OUTPUT CONTROL FOR STRESS PERIOD   25   TIME STEP 3800

 -------------------------------------------------------------------------------
                             SWR1 OUTPUT PRINT TIMES
                        STRESS PERIOD   25   TIME STEP  3800
 --------------- --------------- --------------- --------------- ---------------
     0.54240E+06                                                                
 -------------------------------------------------------------------------------
 
 SOLVING FOR HEAD 
 INITIAL HNEW IS AN EXACT SOLUTION.

 NO OUTPUT CONTROL FOR STRESS PERIOD   25   TIME STEP 3801

 -------------------------------------------------------------------------------
                             SWR1 OUTPUT PRINT TIMES
                        STRESS PERIOD   25   TIME STEP  3801
 --------------- --------------- --------------- --------------- ---------------
     0.54252E+06                                                                
 -------------------------------------------------------------------------------
 
 SOLVING FOR HEAD 
 INITIAL HNEW IS AN EXACT SOLUTION.

 NO OUTPUT CONTROL FOR STRESS PERIOD   25   TIME STEP 3802

 -------------------------------------------------------------------------------
                             SWR1 OUTPUT PRINT TIMES
                        STRESS PERIOD   25   TIME STEP  3802
 --------------- --------------- --------------- --------------- ---------------
     0.54264E+06                                                                
 -------------------------------------------------------------------------------
 
 SOLVING FOR HEAD 
 INITIAL HNEW IS AN EXACT SOLUTION.

 NO OUTPUT CONTROL FOR STRESS PERIOD   25   TIME STEP 3803

 -------------------------------------------------------------------------------
                             SWR1 OUTPUT PRINT TIMES
                        STRESS PERIOD   25   TIME STEP  3803
 --------------- --------------- --------------- --------------- ---------------
     0.54276E+06                                                                
 -------------------------------------------------------------------------------
 
 SOLVING FOR HEAD 
 INITIAL HNEW IS AN EXACT SOLUTION.

 NO OUTPUT CONTROL FOR STRESS PERIOD   25   TIME STEP 3804

 -------------------------------------------------------------------------------
                             SWR1 OUTPUT PRINT TIMES
                        STRESS PERIOD   25   TIME STEP  3804
 --------------- --------------- --------------- --------------- ---------------
     0.54288E+06                                                                
 -------------------------------------------------------------------------------
 
 SOLVING FOR HEAD 
 INITIAL HNEW IS AN EXACT SOLUTION.

 NO OUTPUT CONTROL FOR STRESS PERIOD   25   TIME STEP 3805

 -------------------------------------------------------------------------------
                             SWR1 OUTPUT PRINT TIMES
                        STRESS PERIOD   25   TIME STEP  3805
 --------------- --------------- --------------- --------------- ---------------
     0.54300E+06                                                                
 -------------------------------------------------------------------------------
 
 SOLVING FOR HEAD 
 INITIAL HNEW IS AN EXACT SOLUTION.

 NO OUTPUT CONTROL FOR STRESS PERIOD   25   TIME STEP 3806

 -------------------------------------------------------------------------------
                             SWR1 OUTPUT PRINT TIMES
                        STRESS PERIOD   25   TIME STEP  3806
 --------------- --------------- --------------- --------------- ---------------
     0.54312E+06                                                                
 -------------------------------------------------------------------------------
 
 SOLVING FOR HEAD 
 INITIAL HNEW IS AN EXACT SOLUTION.

 NO OUTPUT CONTROL FOR STRESS PERIOD   25   TIME STEP 3807

 -------------------------------------------------------------------------------
                             SWR1 OUTPUT PRINT TIMES
                        STRESS PERIOD   25   TIME STEP  3807
 --------------- --------------- --------------- --------------- ---------------
     0.54324E+06                                                                
 -------------------------------------------------------------------------------
 
 SOLVING FOR HEAD 
 INITIAL HNEW IS AN EXACT SOLUTION.

 NO OUTPUT CONTROL FOR STRESS PERIOD   25   TIME STEP 3808

 -------------------------------------------------------------------------------
                             SWR1 OUTPUT PRINT TIMES
                        STRESS PERIOD   25   TIME STEP  3808
 --------------- --------------- --------------- --------------- ---------------
     0.54336E+06                                                                
 -------------------------------------------------------------------------------
 
 SOLVING FOR HEAD 
 INITIAL HNEW IS AN EXACT SOLUTION.

 NO OUTPUT CONTROL FOR STRESS PERIOD   25   TIME STEP 3809

 -------------------------------------------------------------------------------
                             SWR1 OUTPUT PRINT TIMES
                        STRESS PERIOD   25   TIME STEP  3809
 --------------- --------------- --------------- --------------- ---------------
     0.54348E+06                                                                
 -------------------------------------------------------------------------------
 
 SOLVING FOR HEAD 
 INITIAL HNEW IS AN EXACT SOLUTION.

 NO OUTPUT CONTROL FOR STRESS PERIOD   25   TIME STEP 3810

 -------------------------------------------------------------------------------
                             SWR1 OUTPUT PRINT TIMES
                        STRESS PERIOD   25   TIME STEP  3810
 --------------- --------------- --------------- --------------- ---------------
     0.54360E+06                                                                
 -------------------------------------------------------------------------------
 
 SOLVING FOR HEAD 
 INITIAL HNEW IS AN EXACT SOLUTION.

 NO OUTPUT CONTROL FOR STRESS PERIOD   25   TIME STEP 3811

 -------------------------------------------------------------------------------
                             SWR1 OUTPUT PRINT TIMES
                        STRESS PERIOD   25   TIME STEP  3811
 --------------- --------------- --------------- --------------- ---------------
     0.54372E+06                                                                
 -------------------------------------------------------------------------------
 
 SOLVING FOR HEAD 
 INITIAL HNEW IS AN EXACT SOLUTION.

 NO OUTPUT CONTROL FOR STRESS PERIOD   25   TIME STEP 3812

 -------------------------------------------------------------------------------
                             SWR1 OUTPUT PRINT TIMES
                        STRESS PERIOD   25   TIME STEP  3812
 --------------- --------------- --------------- --------------- ---------------
     0.54384E+06                                                                
 -------------------------------------------------------------------------------
 
 SOLVING FOR HEAD 
 INITIAL HNEW IS AN EXACT SOLUTION.

 NO OUTPUT CONTROL FOR STRESS PERIOD   25   TIME STEP 3813

 -------------------------------------------------------------------------------
                             SWR1 OUTPUT PRINT TIMES
                        STRESS PERIOD   25   TIME STEP  3813
 --------------- --------------- --------------- --------------- ---------------
     0.54396E+06                                                                
 -------------------------------------------------------------------------------
 
 SOLVING FOR HEAD 
 INITIAL HNEW IS AN EXACT SOLUTION.

 NO OUTPUT CONTROL FOR STRESS PERIOD   25   TIME STEP 3814

 -------------------------------------------------------------------------------
                             SWR1 OUTPUT PRINT TIMES
                        STRESS PERIOD   25   TIME STEP  3814
 --------------- --------------- --------------- --------------- ---------------
     0.54408E+06                                                                
 -------------------------------------------------------------------------------
 
 SOLVING FOR HEAD 
 INITIAL HNEW IS AN EXACT SOLUTION.

 NO OUTPUT CONTROL FOR STRESS PERIOD   25   TIME STEP 3815

 -------------------------------------------------------------------------------
                             SWR1 OUTPUT PRINT TIMES
                        STRESS PERIOD   25   TIME STEP  3815
 --------------- --------------- --------------- --------------- ---------------
     0.54420E+06                                                                
 -------------------------------------------------------------------------------
 
 SOLVING FOR HEAD 
 INITIAL HNEW IS AN EXACT SOLUTION.

 NO OUTPUT CONTROL FOR STRESS PERIOD   25   TIME STEP 3816

 -------------------------------------------------------------------------------
                             SWR1 OUTPUT PRINT TIMES
                        STRESS PERIOD   25   TIME STEP  3816
 --------------- --------------- --------------- --------------- ---------------
     0.54432E+06                                                                
 -------------------------------------------------------------------------------
 
 SOLVING FOR HEAD 
 INITIAL HNEW IS AN EXACT SOLUTION.

 NO OUTPUT CONTROL FOR STRESS PERIOD   25   TIME STEP 3817

 -------------------------------------------------------------------------------
                             SWR1 OUTPUT PRINT TIMES
                        STRESS PERIOD   25   TIME STEP  3817
 --------------- --------------- --------------- --------------- ---------------
     0.54444E+06                                                                
 -------------------------------------------------------------------------------
 
 SOLVING FOR HEAD 
 INITIAL HNEW IS AN EXACT SOLUTION.

 NO OUTPUT CONTROL FOR STRESS PERIOD   25   TIME STEP 3818

 -------------------------------------------------------------------------------
                             SWR1 OUTPUT PRINT TIMES
                        STRESS PERIOD   25   TIME STEP  3818
 --------------- --------------- --------------- --------------- ---------------
     0.54456E+06                                                                
 -------------------------------------------------------------------------------
 
 SOLVING FOR HEAD 
 INITIAL HNEW IS AN EXACT SOLUTION.

 NO OUTPUT CONTROL FOR STRESS PERIOD   25   TIME STEP 3819

 -------------------------------------------------------------------------------
                             SWR1 OUTPUT PRINT TIMES
                        STRESS PERIOD   25   TIME STEP  3819
 --------------- --------------- --------------- --------------- ---------------
     0.54468E+06                                                                
 -------------------------------------------------------------------------------
 
 SOLVING FOR HEAD 
 INITIAL HNEW IS AN EXACT SOLUTION.

 NO OUTPUT CONTROL FOR STRESS PERIOD   25   TIME STEP 3820

 -------------------------------------------------------------------------------
                             SWR1 OUTPUT PRINT TIMES
                        STRESS PERIOD   25   TIME STEP  3820
 --------------- --------------- --------------- --------------- ---------------
     0.54480E+06                                                                
 -------------------------------------------------------------------------------
 
 SOLVING FOR HEAD 
 INITIAL HNEW IS AN EXACT SOLUTION.

 NO OUTPUT CONTROL FOR STRESS PERIOD   25   TIME STEP 3821

 -------------------------------------------------------------------------------
                             SWR1 OUTPUT PRINT TIMES
                        STRESS PERIOD   25   TIME STEP  3821
 --------------- --------------- --------------- --------------- ---------------
     0.54492E+06                                                                
 -------------------------------------------------------------------------------
 
 SOLVING FOR HEAD 
 INITIAL HNEW IS AN EXACT SOLUTION.

 NO OUTPUT CONTROL FOR STRESS PERIOD   25   TIME STEP 3822

 -------------------------------------------------------------------------------
                             SWR1 OUTPUT PRINT TIMES
                        STRESS PERIOD   25   TIME STEP  3822
 --------------- --------------- --------------- --------------- ---------------
     0.54504E+06                                                                
 -------------------------------------------------------------------------------
 
 SOLVING FOR HEAD 
 INITIAL HNEW IS AN EXACT SOLUTION.

 NO OUTPUT CONTROL FOR STRESS PERIOD   25   TIME STEP 3823

 -------------------------------------------------------------------------------
                             SWR1 OUTPUT PRINT TIMES
                        STRESS PERIOD   25   TIME STEP  3823
 --------------- --------------- --------------- --------------- ---------------
     0.54516E+06                                                                
 -------------------------------------------------------------------------------
 
 SOLVING FOR HEAD 
 INITIAL HNEW IS AN EXACT SOLUTION.

 NO OUTPUT CONTROL FOR STRESS PERIOD   25   TIME STEP 3824

 -------------------------------------------------------------------------------
                             SWR1 OUTPUT PRINT TIMES
                        STRESS PERIOD   25   TIME STEP  3824
 --------------- --------------- --------------- --------------- ---------------
     0.54528E+06                                                                
 -------------------------------------------------------------------------------
 
 SOLVING FOR HEAD 
 INITIAL HNEW IS AN EXACT SOLUTION.

 NO OUTPUT CONTROL FOR STRESS PERIOD   25   TIME STEP 3825

 -------------------------------------------------------------------------------
                             SWR1 OUTPUT PRINT TIMES
                        STRESS PERIOD   25   TIME STEP  3825
 --------------- --------------- --------------- --------------- ---------------
     0.54540E+06                                                                
 -------------------------------------------------------------------------------
 
 SOLVING FOR HEAD 
 INITIAL HNEW IS AN EXACT SOLUTION.

 NO OUTPUT CONTROL FOR STRESS PERIOD   25   TIME STEP 3826

 -------------------------------------------------------------------------------
                             SWR1 OUTPUT PRINT TIMES
                        STRESS PERIOD   25   TIME STEP  3826
 --------------- --------------- --------------- --------------- ---------------
     0.54552E+06                                                                
 -------------------------------------------------------------------------------
 
 SOLVING FOR HEAD 
 INITIAL HNEW IS AN EXACT SOLUTION.

 NO OUTPUT CONTROL FOR STRESS PERIOD   25   TIME STEP 3827

 -------------------------------------------------------------------------------
                             SWR1 OUTPUT PRINT TIMES
                        STRESS PERIOD   25   TIME STEP  3827
 --------------- --------------- --------------- --------------- ---------------
     0.54564E+06                                                                
 -------------------------------------------------------------------------------
 
 SOLVING FOR HEAD 
 INITIAL HNEW IS AN EXACT SOLUTION.

 NO OUTPUT CONTROL FOR STRESS PERIOD   25   TIME STEP 3828

 -------------------------------------------------------------------------------
                             SWR1 OUTPUT PRINT TIMES
                        STRESS PERIOD   25   TIME STEP  3828
 --------------- --------------- --------------- --------------- ---------------
     0.54576E+06                                                                
 -------------------------------------------------------------------------------
 
 SOLVING FOR HEAD 
 INITIAL HNEW IS AN EXACT SOLUTION.

 NO OUTPUT CONTROL FOR STRESS PERIOD   25   TIME STEP 3829

 -------------------------------------------------------------------------------
                             SWR1 OUTPUT PRINT TIMES
                        STRESS PERIOD   25   TIME STEP  3829
 --------------- --------------- --------------- --------------- ---------------
     0.54588E+06                                                                
 -------------------------------------------------------------------------------
 
 SOLVING FOR HEAD 
 INITIAL HNEW IS AN EXACT SOLUTION.

 NO OUTPUT CONTROL FOR STRESS PERIOD   25   TIME STEP 3830

 -------------------------------------------------------------------------------
                             SWR1 OUTPUT PRINT TIMES
                        STRESS PERIOD   25   TIME STEP  3830
 --------------- --------------- --------------- --------------- ---------------
     0.54600E+06                                                                
 -------------------------------------------------------------------------------
 
 SOLVING FOR HEAD 
 INITIAL HNEW IS AN EXACT SOLUTION.

 NO OUTPUT CONTROL FOR STRESS PERIOD   25   TIME STEP 3831

 -------------------------------------------------------------------------------
                             SWR1 OUTPUT PRINT TIMES
                        STRESS PERIOD   25   TIME STEP  3831
 --------------- --------------- --------------- --------------- ---------------
     0.54612E+06                                                                
 -------------------------------------------------------------------------------
 
 SOLVING FOR HEAD 
 INITIAL HNEW IS AN EXACT SOLUTION.

 NO OUTPUT CONTROL FOR STRESS PERIOD   25   TIME STEP 3832

 -------------------------------------------------------------------------------
                             SWR1 OUTPUT PRINT TIMES
                        STRESS PERIOD   25   TIME STEP  3832
 --------------- --------------- --------------- --------------- ---------------
     0.54624E+06                                                                
 -------------------------------------------------------------------------------
 
 SOLVING FOR HEAD 
 INITIAL HNEW IS AN EXACT SOLUTION.

 NO OUTPUT CONTROL FOR STRESS PERIOD   25   TIME STEP 3833

 -------------------------------------------------------------------------------
                             SWR1 OUTPUT PRINT TIMES
                        STRESS PERIOD   25   TIME STEP  3833
 --------------- --------------- --------------- --------------- ---------------
     0.54636E+06                                                                
 -------------------------------------------------------------------------------
 
 SOLVING FOR HEAD 
 INITIAL HNEW IS AN EXACT SOLUTION.

 NO OUTPUT CONTROL FOR STRESS PERIOD   25   TIME STEP 3834

 -------------------------------------------------------------------------------
                             SWR1 OUTPUT PRINT TIMES
                        STRESS PERIOD   25   TIME STEP  3834
 --------------- --------------- --------------- --------------- ---------------
     0.54648E+06                                                                
 -------------------------------------------------------------------------------
 
 SOLVING FOR HEAD 
 INITIAL HNEW IS AN EXACT SOLUTION.

 NO OUTPUT CONTROL FOR STRESS PERIOD   25   TIME STEP 3835

 -------------------------------------------------------------------------------
                             SWR1 OUTPUT PRINT TIMES
                        STRESS PERIOD   25   TIME STEP  3835
 --------------- --------------- --------------- --------------- ---------------
     0.54660E+06                                                                
 -------------------------------------------------------------------------------
 
 SOLVING FOR HEAD 
 INITIAL HNEW IS AN EXACT SOLUTION.

 NO OUTPUT CONTROL FOR STRESS PERIOD   25   TIME STEP 3836

 -------------------------------------------------------------------------------
                             SWR1 OUTPUT PRINT TIMES
                        STRESS PERIOD   25   TIME STEP  3836
 --------------- --------------- --------------- --------------- ---------------
     0.54672E+06                                                                
 -------------------------------------------------------------------------------
 
 SOLVING FOR HEAD 
 INITIAL HNEW IS AN EXACT SOLUTION.

 NO OUTPUT CONTROL FOR STRESS PERIOD   25   TIME STEP 3837

 -------------------------------------------------------------------------------
                             SWR1 OUTPUT PRINT TIMES
                        STRESS PERIOD   25   TIME STEP  3837
 --------------- --------------- --------------- --------------- ---------------
     0.54684E+06                                                                
 -------------------------------------------------------------------------------
 
 SOLVING FOR HEAD 
 INITIAL HNEW IS AN EXACT SOLUTION.

 NO OUTPUT CONTROL FOR STRESS PERIOD   25   TIME STEP 3838

 -------------------------------------------------------------------------------
                             SWR1 OUTPUT PRINT TIMES
                        STRESS PERIOD   25   TIME STEP  3838
 --------------- --------------- --------------- --------------- ---------------
     0.54696E+06                                                                
 -------------------------------------------------------------------------------
 
 SOLVING FOR HEAD 
 INITIAL HNEW IS AN EXACT SOLUTION.

 NO OUTPUT CONTROL FOR STRESS PERIOD   25   TIME STEP 3839

 -------------------------------------------------------------------------------
                             SWR1 OUTPUT PRINT TIMES
                        STRESS PERIOD   25   TIME STEP  3839
 --------------- --------------- --------------- --------------- ---------------
     0.54708E+06                                                                
 -------------------------------------------------------------------------------
 
 SOLVING FOR HEAD 
 INITIAL HNEW IS AN EXACT SOLUTION.

 NO OUTPUT CONTROL FOR STRESS PERIOD   25   TIME STEP 3840

 -------------------------------------------------------------------------------
                             SWR1 OUTPUT PRINT TIMES
                        STRESS PERIOD   25   TIME STEP  3840
 --------------- --------------- --------------- --------------- ---------------
     0.54720E+06                                                                
 -------------------------------------------------------------------------------
 
 SOLVING FOR HEAD 
 INITIAL HNEW IS AN EXACT SOLUTION.

 NO OUTPUT CONTROL FOR STRESS PERIOD   25   TIME STEP 3841

 -------------------------------------------------------------------------------
                             SWR1 OUTPUT PRINT TIMES
                        STRESS PERIOD   25   TIME STEP  3841
 --------------- --------------- --------------- --------------- ---------------
     0.54732E+06                                                                
 -------------------------------------------------------------------------------
 
 SOLVING FOR HEAD 
 INITIAL HNEW IS AN EXACT SOLUTION.

 NO OUTPUT CONTROL FOR STRESS PERIOD   25   TIME STEP 3842

 -------------------------------------------------------------------------------
                             SWR1 OUTPUT PRINT TIMES
                        STRESS PERIOD   25   TIME STEP  3842
 --------------- --------------- --------------- --------------- ---------------
     0.54744E+06                                                                
 -------------------------------------------------------------------------------
 
 SOLVING FOR HEAD 
 INITIAL HNEW IS AN EXACT SOLUTION.

 NO OUTPUT CONTROL FOR STRESS PERIOD   25   TIME STEP 3843

 -------------------------------------------------------------------------------
                             SWR1 OUTPUT PRINT TIMES
                        STRESS PERIOD   25   TIME STEP  3843
 --------------- --------------- --------------- --------------- ---------------
     0.54756E+06                                                                
 -------------------------------------------------------------------------------
 
 SOLVING FOR HEAD 
 INITIAL HNEW IS AN EXACT SOLUTION.

 NO OUTPUT CONTROL FOR STRESS PERIOD   25   TIME STEP 3844

 -------------------------------------------------------------------------------
                             SWR1 OUTPUT PRINT TIMES
                        STRESS PERIOD   25   TIME STEP  3844
 --------------- --------------- --------------- --------------- ---------------
     0.54768E+06                                                                
 -------------------------------------------------------------------------------
 
 SOLVING FOR HEAD 
 INITIAL HNEW IS AN EXACT SOLUTION.

 NO OUTPUT CONTROL FOR STRESS PERIOD   25   TIME STEP 3845

 -------------------------------------------------------------------------------
                             SWR1 OUTPUT PRINT TIMES
                        STRESS PERIOD   25   TIME STEP  3845
 --------------- --------------- --------------- --------------- ---------------
     0.54780E+06                                                                
 -------------------------------------------------------------------------------
 
 SOLVING FOR HEAD 
 INITIAL HNEW IS AN EXACT SOLUTION.

 NO OUTPUT CONTROL FOR STRESS PERIOD   25   TIME STEP 3846

 -------------------------------------------------------------------------------
                             SWR1 OUTPUT PRINT TIMES
                        STRESS PERIOD   25   TIME STEP  3846
 --------------- --------------- --------------- --------------- ---------------
     0.54792E+06                                                                
 -------------------------------------------------------------------------------
 
 SOLVING FOR HEAD 
 INITIAL HNEW IS AN EXACT SOLUTION.

 NO OUTPUT CONTROL FOR STRESS PERIOD   25   TIME STEP 3847

 -------------------------------------------------------------------------------
                             SWR1 OUTPUT PRINT TIMES
                        STRESS PERIOD   25   TIME STEP  3847
 --------------- --------------- --------------- --------------- ---------------
     0.54804E+06                                                                
 -------------------------------------------------------------------------------
 
 SOLVING FOR HEAD 
 INITIAL HNEW IS AN EXACT SOLUTION.

 NO OUTPUT CONTROL FOR STRESS PERIOD   25   TIME STEP 3848

 -------------------------------------------------------------------------------
                             SWR1 OUTPUT PRINT TIMES
                        STRESS PERIOD   25   TIME STEP  3848
 --------------- --------------- --------------- --------------- ---------------
     0.54816E+06                                                                
 -------------------------------------------------------------------------------
 
 SOLVING FOR HEAD 
 INITIAL HNEW IS AN EXACT SOLUTION.

 NO OUTPUT CONTROL FOR STRESS PERIOD   25   TIME STEP 3849

 -------------------------------------------------------------------------------
                             SWR1 OUTPUT PRINT TIMES
                        STRESS PERIOD   25   TIME STEP  3849
 --------------- --------------- --------------- --------------- ---------------
     0.54828E+06                                                                
 -------------------------------------------------------------------------------
 
 SOLVING FOR HEAD 
 INITIAL HNEW IS AN EXACT SOLUTION.

 NO OUTPUT CONTROL FOR STRESS PERIOD   25   TIME STEP 3850

 -------------------------------------------------------------------------------
                             SWR1 OUTPUT PRINT TIMES
                        STRESS PERIOD   25   TIME STEP  3850
 --------------- --------------- --------------- --------------- ---------------
     0.54840E+06                                                                
 -------------------------------------------------------------------------------
 
 SOLVING FOR HEAD 
 INITIAL HNEW IS AN EXACT SOLUTION.

 NO OUTPUT CONTROL FOR STRESS PERIOD   25   TIME STEP 3851

 -------------------------------------------------------------------------------
                             SWR1 OUTPUT PRINT TIMES
                        STRESS PERIOD   25   TIME STEP  3851
 --------------- --------------- --------------- --------------- ---------------
     0.54852E+06                                                                
 -------------------------------------------------------------------------------
 
 SOLVING FOR HEAD 
 INITIAL HNEW IS AN EXACT SOLUTION.

 NO OUTPUT CONTROL FOR STRESS PERIOD   25   TIME STEP 3852

 -------------------------------------------------------------------------------
                             SWR1 OUTPUT PRINT TIMES
                        STRESS PERIOD   25   TIME STEP  3852
 --------------- --------------- --------------- --------------- ---------------
     0.54864E+06                                                                
 -------------------------------------------------------------------------------
 
 SOLVING FOR HEAD 
 INITIAL HNEW IS AN EXACT SOLUTION.

 NO OUTPUT CONTROL FOR STRESS PERIOD   25   TIME STEP 3853

 -------------------------------------------------------------------------------
                             SWR1 OUTPUT PRINT TIMES
                        STRESS PERIOD   25   TIME STEP  3853
 --------------- --------------- --------------- --------------- ---------------
     0.54876E+06                                                                
 -------------------------------------------------------------------------------
 
 SOLVING FOR HEAD 
 INITIAL HNEW IS AN EXACT SOLUTION.

 NO OUTPUT CONTROL FOR STRESS PERIOD   25   TIME STEP 3854

 -------------------------------------------------------------------------------
                             SWR1 OUTPUT PRINT TIMES
                        STRESS PERIOD   25   TIME STEP  3854
 --------------- --------------- --------------- --------------- ---------------
     0.54888E+06                                                                
 -------------------------------------------------------------------------------
 
 SOLVING FOR HEAD 
 INITIAL HNEW IS AN EXACT SOLUTION.

 NO OUTPUT CONTROL FOR STRESS PERIOD   25   TIME STEP 3855

 -------------------------------------------------------------------------------
                             SWR1 OUTPUT PRINT TIMES
                        STRESS PERIOD   25   TIME STEP  3855
 --------------- --------------- --------------- --------------- ---------------
     0.54900E+06                                                                
 -------------------------------------------------------------------------------
 
 SOLVING FOR HEAD 
 INITIAL HNEW IS AN EXACT SOLUTION.

 NO OUTPUT CONTROL FOR STRESS PERIOD   25   TIME STEP 3856

 -------------------------------------------------------------------------------
                             SWR1 OUTPUT PRINT TIMES
                        STRESS PERIOD   25   TIME STEP  3856
 --------------- --------------- --------------- --------------- ---------------
     0.54912E+06                                                                
 -------------------------------------------------------------------------------
 
 SOLVING FOR HEAD 
 INITIAL HNEW IS AN EXACT SOLUTION.

 NO OUTPUT CONTROL FOR STRESS PERIOD   25   TIME STEP 3857

 -------------------------------------------------------------------------------
                             SWR1 OUTPUT PRINT TIMES
                        STRESS PERIOD   25   TIME STEP  3857
 --------------- --------------- --------------- --------------- ---------------
     0.54924E+06                                                                
 -------------------------------------------------------------------------------
 
 SOLVING FOR HEAD 
 INITIAL HNEW IS AN EXACT SOLUTION.

 NO OUTPUT CONTROL FOR STRESS PERIOD   25   TIME STEP 3858

 -------------------------------------------------------------------------------
                             SWR1 OUTPUT PRINT TIMES
                        STRESS PERIOD   25   TIME STEP  3858
 --------------- --------------- --------------- --------------- ---------------
     0.54936E+06                                                                
 -------------------------------------------------------------------------------
 
 SOLVING FOR HEAD 
 INITIAL HNEW IS AN EXACT SOLUTION.

 NO OUTPUT CONTROL FOR STRESS PERIOD   25   TIME STEP 3859

 -------------------------------------------------------------------------------
                             SWR1 OUTPUT PRINT TIMES
                        STRESS PERIOD   25   TIME STEP  3859
 --------------- --------------- --------------- --------------- ---------------
     0.54948E+06                                                                
 -------------------------------------------------------------------------------
 
 SOLVING FOR HEAD 
 INITIAL HNEW IS AN EXACT SOLUTION.

 NO OUTPUT CONTROL FOR STRESS PERIOD   25   TIME STEP 3860

 -------------------------------------------------------------------------------
                             SWR1 OUTPUT PRINT TIMES
                        STRESS PERIOD   25   TIME STEP  3860
 --------------- --------------- --------------- --------------- ---------------
     0.54960E+06                                                                
 -------------------------------------------------------------------------------
 
 SOLVING FOR HEAD 
 INITIAL HNEW IS AN EXACT SOLUTION.

 NO OUTPUT CONTROL FOR STRESS PERIOD   25   TIME STEP 3861

 -------------------------------------------------------------------------------
                             SWR1 OUTPUT PRINT TIMES
                        STRESS PERIOD   25   TIME STEP  3861
 --------------- --------------- --------------- --------------- ---------------
     0.54972E+06                                                                
 -------------------------------------------------------------------------------
 
 SOLVING FOR HEAD 
 INITIAL HNEW IS AN EXACT SOLUTION.

 NO OUTPUT CONTROL FOR STRESS PERIOD   25   TIME STEP 3862

 -------------------------------------------------------------------------------
                             SWR1 OUTPUT PRINT TIMES
                        STRESS PERIOD   25   TIME STEP  3862
 --------------- --------------- --------------- --------------- ---------------
     0.54984E+06                                                                
 -------------------------------------------------------------------------------
 
 SOLVING FOR HEAD 
 INITIAL HNEW IS AN EXACT SOLUTION.

 NO OUTPUT CONTROL FOR STRESS PERIOD   25   TIME STEP 3863

 -------------------------------------------------------------------------------
                             SWR1 OUTPUT PRINT TIMES
                        STRESS PERIOD   25   TIME STEP  3863
 --------------- --------------- --------------- --------------- ---------------
     0.54996E+06                                                                
 -------------------------------------------------------------------------------
 
 SOLVING FOR HEAD 
 INITIAL HNEW IS AN EXACT SOLUTION.

 NO OUTPUT CONTROL FOR STRESS PERIOD   25   TIME STEP 3864

 -------------------------------------------------------------------------------
                             SWR1 OUTPUT PRINT TIMES
                        STRESS PERIOD   25   TIME STEP  3864
 --------------- --------------- --------------- --------------- ---------------
     0.55008E+06                                                                
 -------------------------------------------------------------------------------
 
 SOLVING FOR HEAD 
 INITIAL HNEW IS AN EXACT SOLUTION.

 NO OUTPUT CONTROL FOR STRESS PERIOD   25   TIME STEP 3865

 -------------------------------------------------------------------------------
                             SWR1 OUTPUT PRINT TIMES
                        STRESS PERIOD   25   TIME STEP  3865
 --------------- --------------- --------------- --------------- ---------------
     0.55020E+06                                                                
 -------------------------------------------------------------------------------
 
 SOLVING FOR HEAD 
 INITIAL HNEW IS AN EXACT SOLUTION.

 NO OUTPUT CONTROL FOR STRESS PERIOD   25   TIME STEP 3866

 -------------------------------------------------------------------------------
                             SWR1 OUTPUT PRINT TIMES
                        STRESS PERIOD   25   TIME STEP  3866
 --------------- --------------- --------------- --------------- ---------------
     0.55032E+06                                                                
 -------------------------------------------------------------------------------
 
 SOLVING FOR HEAD 
 INITIAL HNEW IS AN EXACT SOLUTION.

 NO OUTPUT CONTROL FOR STRESS PERIOD   25   TIME STEP 3867

 -------------------------------------------------------------------------------
                             SWR1 OUTPUT PRINT TIMES
                        STRESS PERIOD   25   TIME STEP  3867
 --------------- --------------- --------------- --------------- ---------------
     0.55044E+06                                                                
 -------------------------------------------------------------------------------
 
 SOLVING FOR HEAD 
 INITIAL HNEW IS AN EXACT SOLUTION.

 NO OUTPUT CONTROL FOR STRESS PERIOD   25   TIME STEP 3868

 -------------------------------------------------------------------------------
                             SWR1 OUTPUT PRINT TIMES
                        STRESS PERIOD   25   TIME STEP  3868
 --------------- --------------- --------------- --------------- ---------------
     0.55056E+06                                                                
 -------------------------------------------------------------------------------
 
 SOLVING FOR HEAD 
 INITIAL HNEW IS AN EXACT SOLUTION.

 NO OUTPUT CONTROL FOR STRESS PERIOD   25   TIME STEP 3869

 -------------------------------------------------------------------------------
                             SWR1 OUTPUT PRINT TIMES
                        STRESS PERIOD   25   TIME STEP  3869
 --------------- --------------- --------------- --------------- ---------------
     0.55068E+06                                                                
 -------------------------------------------------------------------------------
 
 SOLVING FOR HEAD 
 INITIAL HNEW IS AN EXACT SOLUTION.

 NO OUTPUT CONTROL FOR STRESS PERIOD   25   TIME STEP 3870

 -------------------------------------------------------------------------------
                             SWR1 OUTPUT PRINT TIMES
                        STRESS PERIOD   25   TIME STEP  3870
 --------------- --------------- --------------- --------------- ---------------
     0.55080E+06                                                                
 -------------------------------------------------------------------------------
 
 SOLVING FOR HEAD 
 INITIAL HNEW IS AN EXACT SOLUTION.

 NO OUTPUT CONTROL FOR STRESS PERIOD   25   TIME STEP 3871

 -------------------------------------------------------------------------------
                             SWR1 OUTPUT PRINT TIMES
                        STRESS PERIOD   25   TIME STEP  3871
 --------------- --------------- --------------- --------------- ---------------
     0.55092E+06                                                                
 -------------------------------------------------------------------------------
 
 SOLVING FOR HEAD 
 INITIAL HNEW IS AN EXACT SOLUTION.

 NO OUTPUT CONTROL FOR STRESS PERIOD   25   TIME STEP 3872

 -------------------------------------------------------------------------------
                             SWR1 OUTPUT PRINT TIMES
                        STRESS PERIOD   25   TIME STEP  3872
 --------------- --------------- --------------- --------------- ---------------
     0.55104E+06                                                                
 -------------------------------------------------------------------------------
 
 SOLVING FOR HEAD 
 INITIAL HNEW IS AN EXACT SOLUTION.

 NO OUTPUT CONTROL FOR STRESS PERIOD   25   TIME STEP 3873

 -------------------------------------------------------------------------------
                             SWR1 OUTPUT PRINT TIMES
                        STRESS PERIOD   25   TIME STEP  3873
 --------------- --------------- --------------- --------------- ---------------
     0.55116E+06                                                                
 -------------------------------------------------------------------------------
 
 SOLVING FOR HEAD 
 INITIAL HNEW IS AN EXACT SOLUTION.

 NO OUTPUT CONTROL FOR STRESS PERIOD   25   TIME STEP 3874

 -------------------------------------------------------------------------------
                             SWR1 OUTPUT PRINT TIMES
                        STRESS PERIOD   25   TIME STEP  3874
 --------------- --------------- --------------- --------------- ---------------
     0.55128E+06                                                                
 -------------------------------------------------------------------------------
 
 SOLVING FOR HEAD 
 INITIAL HNEW IS AN EXACT SOLUTION.

 NO OUTPUT CONTROL FOR STRESS PERIOD   25   TIME STEP 3875

 -------------------------------------------------------------------------------
                             SWR1 OUTPUT PRINT TIMES
                        STRESS PERIOD   25   TIME STEP  3875
 --------------- --------------- --------------- --------------- ---------------
     0.55140E+06                                                                
 -------------------------------------------------------------------------------
 
 SOLVING FOR HEAD 
 INITIAL HNEW IS AN EXACT SOLUTION.

 NO OUTPUT CONTROL FOR STRESS PERIOD   25   TIME STEP 3876

 -------------------------------------------------------------------------------
                             SWR1 OUTPUT PRINT TIMES
                        STRESS PERIOD   25   TIME STEP  3876
 --------------- --------------- --------------- --------------- ---------------
     0.55152E+06                                                                
 -------------------------------------------------------------------------------
 
 SOLVING FOR HEAD 
 INITIAL HNEW IS AN EXACT SOLUTION.

 NO OUTPUT CONTROL FOR STRESS PERIOD   25   TIME STEP 3877

 -------------------------------------------------------------------------------
                             SWR1 OUTPUT PRINT TIMES
                        STRESS PERIOD   25   TIME STEP  3877
 --------------- --------------- --------------- --------------- ---------------
     0.55164E+06                                                                
 -------------------------------------------------------------------------------
 
 SOLVING FOR HEAD 
 INITIAL HNEW IS AN EXACT SOLUTION.

 NO OUTPUT CONTROL FOR STRESS PERIOD   25   TIME STEP 3878

 -------------------------------------------------------------------------------
                             SWR1 OUTPUT PRINT TIMES
                        STRESS PERIOD   25   TIME STEP  3878
 --------------- --------------- --------------- --------------- ---------------
     0.55176E+06                                                                
 -------------------------------------------------------------------------------
 
 SOLVING FOR HEAD 
 INITIAL HNEW IS AN EXACT SOLUTION.

 NO OUTPUT CONTROL FOR STRESS PERIOD   25   TIME STEP 3879

 -------------------------------------------------------------------------------
                             SWR1 OUTPUT PRINT TIMES
                        STRESS PERIOD   25   TIME STEP  3879
 --------------- --------------- --------------- --------------- ---------------
     0.55188E+06                                                                
 -------------------------------------------------------------------------------
 
 SOLVING FOR HEAD 
 INITIAL HNEW IS AN EXACT SOLUTION.

 NO OUTPUT CONTROL FOR STRESS PERIOD   25   TIME STEP 3880

 -------------------------------------------------------------------------------
                             SWR1 OUTPUT PRINT TIMES
                        STRESS PERIOD   25   TIME STEP  3880
 --------------- --------------- --------------- --------------- ---------------
     0.55200E+06                                                                
 -------------------------------------------------------------------------------
 
 SOLVING FOR HEAD 
 INITIAL HNEW IS AN EXACT SOLUTION.

 NO OUTPUT CONTROL FOR STRESS PERIOD   25   TIME STEP 3881

 -------------------------------------------------------------------------------
                             SWR1 OUTPUT PRINT TIMES
                        STRESS PERIOD   25   TIME STEP  3881
 --------------- --------------- --------------- --------------- ---------------
     0.55212E+06                                                                
 -------------------------------------------------------------------------------
 
 SOLVING FOR HEAD 
 INITIAL HNEW IS AN EXACT SOLUTION.

 NO OUTPUT CONTROL FOR STRESS PERIOD   25   TIME STEP 3882

 -------------------------------------------------------------------------------
                             SWR1 OUTPUT PRINT TIMES
                        STRESS PERIOD   25   TIME STEP  3882
 --------------- --------------- --------------- --------------- ---------------
     0.55224E+06                                                                
 -------------------------------------------------------------------------------
 
 SOLVING FOR HEAD 
 INITIAL HNEW IS AN EXACT SOLUTION.

 NO OUTPUT CONTROL FOR STRESS PERIOD   25   TIME STEP 3883

 -------------------------------------------------------------------------------
                             SWR1 OUTPUT PRINT TIMES
                        STRESS PERIOD   25   TIME STEP  3883
 --------------- --------------- --------------- --------------- ---------------
     0.55236E+06                                                                
 -------------------------------------------------------------------------------
 
 SOLVING FOR HEAD 
 INITIAL HNEW IS AN EXACT SOLUTION.

 NO OUTPUT CONTROL FOR STRESS PERIOD   25   TIME STEP 3884

 -------------------------------------------------------------------------------
                             SWR1 OUTPUT PRINT TIMES
                        STRESS PERIOD   25   TIME STEP  3884
 --------------- --------------- --------------- --------------- ---------------
     0.55248E+06                                                                
 -------------------------------------------------------------------------------
 
 SOLVING FOR HEAD 
 INITIAL HNEW IS AN EXACT SOLUTION.

 NO OUTPUT CONTROL FOR STRESS PERIOD   25   TIME STEP 3885

 -------------------------------------------------------------------------------
                             SWR1 OUTPUT PRINT TIMES
                        STRESS PERIOD   25   TIME STEP  3885
 --------------- --------------- --------------- --------------- ---------------
     0.55260E+06                                                                
 -------------------------------------------------------------------------------
 
 SOLVING FOR HEAD 
 INITIAL HNEW IS AN EXACT SOLUTION.

 NO OUTPUT CONTROL FOR STRESS PERIOD   25   TIME STEP 3886

 -------------------------------------------------------------------------------
                             SWR1 OUTPUT PRINT TIMES
                        STRESS PERIOD   25   TIME STEP  3886
 --------------- --------------- --------------- --------------- ---------------
     0.55272E+06                                                                
 -------------------------------------------------------------------------------
 
 SOLVING FOR HEAD 
 INITIAL HNEW IS AN EXACT SOLUTION.

 NO OUTPUT CONTROL FOR STRESS PERIOD   25   TIME STEP 3887

 -------------------------------------------------------------------------------
                             SWR1 OUTPUT PRINT TIMES
                        STRESS PERIOD   25   TIME STEP  3887
 --------------- --------------- --------------- --------------- ---------------
     0.55284E+06                                                                
 -------------------------------------------------------------------------------
 
 SOLVING FOR HEAD 
 INITIAL HNEW IS AN EXACT SOLUTION.

 NO OUTPUT CONTROL FOR STRESS PERIOD   25   TIME STEP 3888

 -------------------------------------------------------------------------------
                             SWR1 OUTPUT PRINT TIMES
                        STRESS PERIOD   25   TIME STEP  3888
 --------------- --------------- --------------- --------------- ---------------
     0.55296E+06                                                                
 -------------------------------------------------------------------------------
 
 SOLVING FOR HEAD 
 INITIAL HNEW IS AN EXACT SOLUTION.

 NO OUTPUT CONTROL FOR STRESS PERIOD   25   TIME STEP 3889

 -------------------------------------------------------------------------------
                             SWR1 OUTPUT PRINT TIMES
                        STRESS PERIOD   25   TIME STEP  3889
 --------------- --------------- --------------- --------------- ---------------
     0.55308E+06                                                                
 -------------------------------------------------------------------------------
 
 SOLVING FOR HEAD 
 INITIAL HNEW IS AN EXACT SOLUTION.

 NO OUTPUT CONTROL FOR STRESS PERIOD   25   TIME STEP 3890

 -------------------------------------------------------------------------------
                             SWR1 OUTPUT PRINT TIMES
                        STRESS PERIOD   25   TIME STEP  3890
 --------------- --------------- --------------- --------------- ---------------
     0.55320E+06                                                                
 -------------------------------------------------------------------------------
 
 SOLVING FOR HEAD 
 INITIAL HNEW IS AN EXACT SOLUTION.

 NO OUTPUT CONTROL FOR STRESS PERIOD   25   TIME STEP 3891

 -------------------------------------------------------------------------------
                             SWR1 OUTPUT PRINT TIMES
                        STRESS PERIOD   25   TIME STEP  3891
 --------------- --------------- --------------- --------------- ---------------
     0.55332E+06                                                                
 -------------------------------------------------------------------------------
 
 SOLVING FOR HEAD 
 INITIAL HNEW IS AN EXACT SOLUTION.

 NO OUTPUT CONTROL FOR STRESS PERIOD   25   TIME STEP 3892

 -------------------------------------------------------------------------------
                             SWR1 OUTPUT PRINT TIMES
                        STRESS PERIOD   25   TIME STEP  3892
 --------------- --------------- --------------- --------------- ---------------
     0.55344E+06                                                                
 -------------------------------------------------------------------------------
 
 SOLVING FOR HEAD 
 INITIAL HNEW IS AN EXACT SOLUTION.

 NO OUTPUT CONTROL FOR STRESS PERIOD   25   TIME STEP 3893

 -------------------------------------------------------------------------------
                             SWR1 OUTPUT PRINT TIMES
                        STRESS PERIOD   25   TIME STEP  3893
 --------------- --------------- --------------- --------------- ---------------
     0.55356E+06                                                                
 -------------------------------------------------------------------------------
 
 SOLVING FOR HEAD 
 INITIAL HNEW IS AN EXACT SOLUTION.

 NO OUTPUT CONTROL FOR STRESS PERIOD   25   TIME STEP 3894

 -------------------------------------------------------------------------------
                             SWR1 OUTPUT PRINT TIMES
                        STRESS PERIOD   25   TIME STEP  3894
 --------------- --------------- --------------- --------------- ---------------
     0.55368E+06                                                                
 -------------------------------------------------------------------------------
 
 SOLVING FOR HEAD 
 INITIAL HNEW IS AN EXACT SOLUTION.

 NO OUTPUT CONTROL FOR STRESS PERIOD   25   TIME STEP 3895

 -------------------------------------------------------------------------------
                             SWR1 OUTPUT PRINT TIMES
                        STRESS PERIOD   25   TIME STEP  3895
 --------------- --------------- --------------- --------------- ---------------
     0.55380E+06                                                                
 -------------------------------------------------------------------------------
 
 SOLVING FOR HEAD 
 INITIAL HNEW IS AN EXACT SOLUTION.

 NO OUTPUT CONTROL FOR STRESS PERIOD   25   TIME STEP 3896

 -------------------------------------------------------------------------------
                             SWR1 OUTPUT PRINT TIMES
                        STRESS PERIOD   25   TIME STEP  3896
 --------------- --------------- --------------- --------------- ---------------
     0.55392E+06                                                                
 -------------------------------------------------------------------------------
 
 SOLVING FOR HEAD 
 INITIAL HNEW IS AN EXACT SOLUTION.

 NO OUTPUT CONTROL FOR STRESS PERIOD   25   TIME STEP 3897

 -------------------------------------------------------------------------------
                             SWR1 OUTPUT PRINT TIMES
                        STRESS PERIOD   25   TIME STEP  3897
 --------------- --------------- --------------- --------------- ---------------
     0.55404E+06                                                                
 -------------------------------------------------------------------------------
 
 SOLVING FOR HEAD 
 INITIAL HNEW IS AN EXACT SOLUTION.

 NO OUTPUT CONTROL FOR STRESS PERIOD   25   TIME STEP 3898

 -------------------------------------------------------------------------------
                             SWR1 OUTPUT PRINT TIMES
                        STRESS PERIOD   25   TIME STEP  3898
 --------------- --------------- --------------- --------------- ---------------
     0.55416E+06                                                                
 -------------------------------------------------------------------------------
 
 SOLVING FOR HEAD 
 INITIAL HNEW IS AN EXACT SOLUTION.

 NO OUTPUT CONTROL FOR STRESS PERIOD   25   TIME STEP 3899

 -------------------------------------------------------------------------------
                             SWR1 OUTPUT PRINT TIMES
                        STRESS PERIOD   25   TIME STEP  3899
 --------------- --------------- --------------- --------------- ---------------
     0.55428E+06                                                                
 -------------------------------------------------------------------------------
 
 SOLVING FOR HEAD 
 INITIAL HNEW IS AN EXACT SOLUTION.

 NO OUTPUT CONTROL FOR STRESS PERIOD   25   TIME STEP 3900

 -------------------------------------------------------------------------------
                             SWR1 OUTPUT PRINT TIMES
                        STRESS PERIOD   25   TIME STEP  3900
 --------------- --------------- --------------- --------------- ---------------
     0.55440E+06                                                                
 -------------------------------------------------------------------------------
 
 SOLVING FOR HEAD 
 INITIAL HNEW IS AN EXACT SOLUTION.

 NO OUTPUT CONTROL FOR STRESS PERIOD   25   TIME STEP 3901

 -------------------------------------------------------------------------------
                             SWR1 OUTPUT PRINT TIMES
                        STRESS PERIOD   25   TIME STEP  3901
 --------------- --------------- --------------- --------------- ---------------
     0.55452E+06                                                                
 -------------------------------------------------------------------------------
 
 SOLVING FOR HEAD 
 INITIAL HNEW IS AN EXACT SOLUTION.

 NO OUTPUT CONTROL FOR STRESS PERIOD   25   TIME STEP 3902

 -------------------------------------------------------------------------------
                             SWR1 OUTPUT PRINT TIMES
                        STRESS PERIOD   25   TIME STEP  3902
 --------------- --------------- --------------- --------------- ---------------
     0.55464E+06                                                                
 -------------------------------------------------------------------------------
 
 SOLVING FOR HEAD 
 INITIAL HNEW IS AN EXACT SOLUTION.

 NO OUTPUT CONTROL FOR STRESS PERIOD   25   TIME STEP 3903

 -------------------------------------------------------------------------------
                             SWR1 OUTPUT PRINT TIMES
                        STRESS PERIOD   25   TIME STEP  3903
 --------------- --------------- --------------- --------------- ---------------
     0.55476E+06                                                                
 -------------------------------------------------------------------------------
 
 SOLVING FOR HEAD 
 INITIAL HNEW IS AN EXACT SOLUTION.

 NO OUTPUT CONTROL FOR STRESS PERIOD   25   TIME STEP 3904

 -------------------------------------------------------------------------------
                             SWR1 OUTPUT PRINT TIMES
                        STRESS PERIOD   25   TIME STEP  3904
 --------------- --------------- --------------- --------------- ---------------
     0.55488E+06                                                                
 -------------------------------------------------------------------------------
 
 SOLVING FOR HEAD 
 INITIAL HNEW IS AN EXACT SOLUTION.

 NO OUTPUT CONTROL FOR STRESS PERIOD   25   TIME STEP 3905

 -------------------------------------------------------------------------------
                             SWR1 OUTPUT PRINT TIMES
                        STRESS PERIOD   25   TIME STEP  3905
 --------------- --------------- --------------- --------------- ---------------
     0.55500E+06                                                                
 -------------------------------------------------------------------------------
 
 SOLVING FOR HEAD 
 INITIAL HNEW IS AN EXACT SOLUTION.

 NO OUTPUT CONTROL FOR STRESS PERIOD   25   TIME STEP 3906

 -------------------------------------------------------------------------------
                             SWR1 OUTPUT PRINT TIMES
                        STRESS PERIOD   25   TIME STEP  3906
 --------------- --------------- --------------- --------------- ---------------
     0.55512E+06                                                                
 -------------------------------------------------------------------------------
 
 SOLVING FOR HEAD 
 INITIAL HNEW IS AN EXACT SOLUTION.

 NO OUTPUT CONTROL FOR STRESS PERIOD   25   TIME STEP 3907

 -------------------------------------------------------------------------------
                             SWR1 OUTPUT PRINT TIMES
                        STRESS PERIOD   25   TIME STEP  3907
 --------------- --------------- --------------- --------------- ---------------
     0.55524E+06                                                                
 -------------------------------------------------------------------------------
 
 SOLVING FOR HEAD 
 INITIAL HNEW IS AN EXACT SOLUTION.

 NO OUTPUT CONTROL FOR STRESS PERIOD   25   TIME STEP 3908

 -------------------------------------------------------------------------------
                             SWR1 OUTPUT PRINT TIMES
                        STRESS PERIOD   25   TIME STEP  3908
 --------------- --------------- --------------- --------------- ---------------
     0.55536E+06                                                                
 -------------------------------------------------------------------------------
 
 SOLVING FOR HEAD 
 INITIAL HNEW IS AN EXACT SOLUTION.

 NO OUTPUT CONTROL FOR STRESS PERIOD   25   TIME STEP 3909

 -------------------------------------------------------------------------------
                             SWR1 OUTPUT PRINT TIMES
                        STRESS PERIOD   25   TIME STEP  3909
 --------------- --------------- --------------- --------------- ---------------
     0.55548E+06                                                                
 -------------------------------------------------------------------------------
 
 SOLVING FOR HEAD 
 INITIAL HNEW IS AN EXACT SOLUTION.

 NO OUTPUT CONTROL FOR STRESS PERIOD   25   TIME STEP 3910

 -------------------------------------------------------------------------------
                             SWR1 OUTPUT PRINT TIMES
                        STRESS PERIOD   25   TIME STEP  3910
 --------------- --------------- --------------- --------------- ---------------
     0.55560E+06                                                                
 -------------------------------------------------------------------------------
 
 SOLVING FOR HEAD 
 INITIAL HNEW IS AN EXACT SOLUTION.

 NO OUTPUT CONTROL FOR STRESS PERIOD   25   TIME STEP 3911

 -------------------------------------------------------------------------------
                             SWR1 OUTPUT PRINT TIMES
                        STRESS PERIOD   25   TIME STEP  3911
 --------------- --------------- --------------- --------------- ---------------
     0.55572E+06                                                                
 -------------------------------------------------------------------------------
 
 SOLVING FOR HEAD 
 INITIAL HNEW IS AN EXACT SOLUTION.

 NO OUTPUT CONTROL FOR STRESS PERIOD   25   TIME STEP 3912

 -------------------------------------------------------------------------------
                             SWR1 OUTPUT PRINT TIMES
                        STRESS PERIOD   25   TIME STEP  3912
 --------------- --------------- --------------- --------------- ---------------
     0.55584E+06                                                                
 -------------------------------------------------------------------------------
 
 SOLVING FOR HEAD 
 INITIAL HNEW IS AN EXACT SOLUTION.

 NO OUTPUT CONTROL FOR STRESS PERIOD   25   TIME STEP 3913

 -------------------------------------------------------------------------------
                             SWR1 OUTPUT PRINT TIMES
                        STRESS PERIOD   25   TIME STEP  3913
 --------------- --------------- --------------- --------------- ---------------
     0.55596E+06                                                                
 -------------------------------------------------------------------------------
 
 SOLVING FOR HEAD 
 INITIAL HNEW IS AN EXACT SOLUTION.

 NO OUTPUT CONTROL FOR STRESS PERIOD   25   TIME STEP 3914

 -------------------------------------------------------------------------------
                             SWR1 OUTPUT PRINT TIMES
                        STRESS PERIOD   25   TIME STEP  3914
 --------------- --------------- --------------- --------------- ---------------
     0.55608E+06                                                                
 -------------------------------------------------------------------------------
 
 SOLVING FOR HEAD 
 INITIAL HNEW IS AN EXACT SOLUTION.

 NO OUTPUT CONTROL FOR STRESS PERIOD   25   TIME STEP 3915

 -------------------------------------------------------------------------------
                             SWR1 OUTPUT PRINT TIMES
                        STRESS PERIOD   25   TIME STEP  3915
 --------------- --------------- --------------- --------------- ---------------
     0.55620E+06                                                                
 -------------------------------------------------------------------------------
 
 SOLVING FOR HEAD 
 INITIAL HNEW IS AN EXACT SOLUTION.

 NO OUTPUT CONTROL FOR STRESS PERIOD   25   TIME STEP 3916

 -------------------------------------------------------------------------------
                             SWR1 OUTPUT PRINT TIMES
                        STRESS PERIOD   25   TIME STEP  3916
 --------------- --------------- --------------- --------------- ---------------
     0.55632E+06                                                                
 -------------------------------------------------------------------------------
 
 SOLVING FOR HEAD 
 INITIAL HNEW IS AN EXACT SOLUTION.

 NO OUTPUT CONTROL FOR STRESS PERIOD   25   TIME STEP 3917

 -------------------------------------------------------------------------------
                             SWR1 OUTPUT PRINT TIMES
                        STRESS PERIOD   25   TIME STEP  3917
 --------------- --------------- --------------- --------------- ---------------
     0.55644E+06                                                                
 -------------------------------------------------------------------------------
 
 SOLVING FOR HEAD 
 INITIAL HNEW IS AN EXACT SOLUTION.

 NO OUTPUT CONTROL FOR STRESS PERIOD   25   TIME STEP 3918

 -------------------------------------------------------------------------------
                             SWR1 OUTPUT PRINT TIMES
                        STRESS PERIOD   25   TIME STEP  3918
 --------------- --------------- --------------- --------------- ---------------
     0.55656E+06                                                                
 -------------------------------------------------------------------------------
 
 SOLVING FOR HEAD 
 INITIAL HNEW IS AN EXACT SOLUTION.

 NO OUTPUT CONTROL FOR STRESS PERIOD   25   TIME STEP 3919

 -------------------------------------------------------------------------------
                             SWR1 OUTPUT PRINT TIMES
                        STRESS PERIOD   25   TIME STEP  3919
 --------------- --------------- --------------- --------------- ---------------
     0.55668E+06                                                                
 -------------------------------------------------------------------------------
 
 SOLVING FOR HEAD 
 INITIAL HNEW IS AN EXACT SOLUTION.

 NO OUTPUT CONTROL FOR STRESS PERIOD   25   TIME STEP 3920

 -------------------------------------------------------------------------------
                             SWR1 OUTPUT PRINT TIMES
                        STRESS PERIOD   25   TIME STEP  3920
 --------------- --------------- --------------- --------------- ---------------
     0.55680E+06                                                                
 -------------------------------------------------------------------------------
 
 SOLVING FOR HEAD 
 INITIAL HNEW IS AN EXACT SOLUTION.

 NO OUTPUT CONTROL FOR STRESS PERIOD   25   TIME STEP 3921

 -------------------------------------------------------------------------------
                             SWR1 OUTPUT PRINT TIMES
                        STRESS PERIOD   25   TIME STEP  3921
 --------------- --------------- --------------- --------------- ---------------
     0.55692E+06                                                                
 -------------------------------------------------------------------------------
 
 SOLVING FOR HEAD 
 INITIAL HNEW IS AN EXACT SOLUTION.

 NO OUTPUT CONTROL FOR STRESS PERIOD   25   TIME STEP 3922

 -------------------------------------------------------------------------------
                             SWR1 OUTPUT PRINT TIMES
                        STRESS PERIOD   25   TIME STEP  3922
 --------------- --------------- --------------- --------------- ---------------
     0.55704E+06                                                                
 -------------------------------------------------------------------------------
 
 SOLVING FOR HEAD 
 INITIAL HNEW IS AN EXACT SOLUTION.

 NO OUTPUT CONTROL FOR STRESS PERIOD   25   TIME STEP 3923

 -------------------------------------------------------------------------------
                             SWR1 OUTPUT PRINT TIMES
                        STRESS PERIOD   25   TIME STEP  3923
 --------------- --------------- --------------- --------------- ---------------
     0.55716E+06                                                                
 -------------------------------------------------------------------------------
 
 SOLVING FOR HEAD 
 INITIAL HNEW IS AN EXACT SOLUTION.

 NO OUTPUT CONTROL FOR STRESS PERIOD   25   TIME STEP 3924

 -------------------------------------------------------------------------------
                             SWR1 OUTPUT PRINT TIMES
                        STRESS PERIOD   25   TIME STEP  3924
 --------------- --------------- --------------- --------------- ---------------
     0.55728E+06                                                                
 -------------------------------------------------------------------------------
 
 SOLVING FOR HEAD 
 INITIAL HNEW IS AN EXACT SOLUTION.

 NO OUTPUT CONTROL FOR STRESS PERIOD   25   TIME STEP 3925

 -------------------------------------------------------------------------------
                             SWR1 OUTPUT PRINT TIMES
                        STRESS PERIOD   25   TIME STEP  3925
 --------------- --------------- --------------- --------------- ---------------
     0.55740E+06                                                                
 -------------------------------------------------------------------------------
 
 SOLVING FOR HEAD 
 INITIAL HNEW IS AN EXACT SOLUTION.

 NO OUTPUT CONTROL FOR STRESS PERIOD   25   TIME STEP 3926

 -------------------------------------------------------------------------------
                             SWR1 OUTPUT PRINT TIMES
                        STRESS PERIOD   25   TIME STEP  3926
 --------------- --------------- --------------- --------------- ---------------
     0.55752E+06                                                                
 -------------------------------------------------------------------------------
 
 SOLVING FOR HEAD 
 INITIAL HNEW IS AN EXACT SOLUTION.

 NO OUTPUT CONTROL FOR STRESS PERIOD   25   TIME STEP 3927

 -------------------------------------------------------------------------------
                             SWR1 OUTPUT PRINT TIMES
                        STRESS PERIOD   25   TIME STEP  3927
 --------------- --------------- --------------- --------------- ---------------
     0.55764E+06                                                                
 -------------------------------------------------------------------------------
 
 SOLVING FOR HEAD 
 INITIAL HNEW IS AN EXACT SOLUTION.

 NO OUTPUT CONTROL FOR STRESS PERIOD   25   TIME STEP 3928

 -------------------------------------------------------------------------------
                             SWR1 OUTPUT PRINT TIMES
                        STRESS PERIOD   25   TIME STEP  3928
 --------------- --------------- --------------- --------------- ---------------
     0.55776E+06                                                                
 -------------------------------------------------------------------------------
 
 SOLVING FOR HEAD 
 INITIAL HNEW IS AN EXACT SOLUTION.

 NO OUTPUT CONTROL FOR STRESS PERIOD   25   TIME STEP 3929

 -------------------------------------------------------------------------------
                             SWR1 OUTPUT PRINT TIMES
                        STRESS PERIOD   25   TIME STEP  3929
 --------------- --------------- --------------- --------------- ---------------
     0.55788E+06                                                                
 -------------------------------------------------------------------------------
 
 SOLVING FOR HEAD 
 INITIAL HNEW IS AN EXACT SOLUTION.

 NO OUTPUT CONTROL FOR STRESS PERIOD   25   TIME STEP 3930

 -------------------------------------------------------------------------------
                             SWR1 OUTPUT PRINT TIMES
                        STRESS PERIOD   25   TIME STEP  3930
 --------------- --------------- --------------- --------------- ---------------
     0.55800E+06                                                                
 -------------------------------------------------------------------------------
 
 SOLVING FOR HEAD 
 INITIAL HNEW IS AN EXACT SOLUTION.

 NO OUTPUT CONTROL FOR STRESS PERIOD   25   TIME STEP 3931

 -------------------------------------------------------------------------------
                             SWR1 OUTPUT PRINT TIMES
                        STRESS PERIOD   25   TIME STEP  3931
 --------------- --------------- --------------- --------------- ---------------
     0.55812E+06                                                                
 -------------------------------------------------------------------------------
 
 SOLVING FOR HEAD 
 INITIAL HNEW IS AN EXACT SOLUTION.

 NO OUTPUT CONTROL FOR STRESS PERIOD   25   TIME STEP 3932

 -------------------------------------------------------------------------------
                             SWR1 OUTPUT PRINT TIMES
                        STRESS PERIOD   25   TIME STEP  3932
 --------------- --------------- --------------- --------------- ---------------
     0.55824E+06                                                                
 -------------------------------------------------------------------------------
 
 SOLVING FOR HEAD 
 INITIAL HNEW IS AN EXACT SOLUTION.

 NO OUTPUT CONTROL FOR STRESS PERIOD   25   TIME STEP 3933

 -------------------------------------------------------------------------------
                             SWR1 OUTPUT PRINT TIMES
                        STRESS PERIOD   25   TIME STEP  3933
 --------------- --------------- --------------- --------------- ---------------
     0.55836E+06                                                                
 -------------------------------------------------------------------------------
 
 SOLVING FOR HEAD 
 INITIAL HNEW IS AN EXACT SOLUTION.

 NO OUTPUT CONTROL FOR STRESS PERIOD   25   TIME STEP 3934

 -------------------------------------------------------------------------------
                             SWR1 OUTPUT PRINT TIMES
                        STRESS PERIOD   25   TIME STEP  3934
 --------------- --------------- --------------- --------------- ---------------
     0.55848E+06                                                                
 -------------------------------------------------------------------------------
 
 SOLVING FOR HEAD 
 INITIAL HNEW IS AN EXACT SOLUTION.

 NO OUTPUT CONTROL FOR STRESS PERIOD   25   TIME STEP 3935

 -------------------------------------------------------------------------------
                             SWR1 OUTPUT PRINT TIMES
                        STRESS PERIOD   25   TIME STEP  3935
 --------------- --------------- --------------- --------------- ---------------
     0.55860E+06                                                                
 -------------------------------------------------------------------------------
 
 SOLVING FOR HEAD 
 INITIAL HNEW IS AN EXACT SOLUTION.

 NO OUTPUT CONTROL FOR STRESS PERIOD   25   TIME STEP 3936

 -------------------------------------------------------------------------------
                             SWR1 OUTPUT PRINT TIMES
                        STRESS PERIOD   25   TIME STEP  3936
 --------------- --------------- --------------- --------------- ---------------
     0.55872E+06                                                                
 -------------------------------------------------------------------------------
 
 SOLVING FOR HEAD 
 INITIAL HNEW IS AN EXACT SOLUTION.

 NO OUTPUT CONTROL FOR STRESS PERIOD   25   TIME STEP 3937

 -------------------------------------------------------------------------------
                             SWR1 OUTPUT PRINT TIMES
                        STRESS PERIOD   25   TIME STEP  3937
 --------------- --------------- --------------- --------------- ---------------
     0.55884E+06                                                                
 -------------------------------------------------------------------------------
 
 SOLVING FOR HEAD 
 INITIAL HNEW IS AN EXACT SOLUTION.

 NO OUTPUT CONTROL FOR STRESS PERIOD   25   TIME STEP 3938

 -------------------------------------------------------------------------------
                             SWR1 OUTPUT PRINT TIMES
                        STRESS PERIOD   25   TIME STEP  3938
 --------------- --------------- --------------- --------------- ---------------
     0.55896E+06                                                                
 -------------------------------------------------------------------------------
 
 SOLVING FOR HEAD 
 INITIAL HNEW IS AN EXACT SOLUTION.

 NO OUTPUT CONTROL FOR STRESS PERIOD   25   TIME STEP 3939

 -------------------------------------------------------------------------------
                             SWR1 OUTPUT PRINT TIMES
                        STRESS PERIOD   25   TIME STEP  3939
 --------------- --------------- --------------- --------------- ---------------
     0.55908E+06                                                                
 -------------------------------------------------------------------------------
 
 SOLVING FOR HEAD 
 INITIAL HNEW IS AN EXACT SOLUTION.

 NO OUTPUT CONTROL FOR STRESS PERIOD   25   TIME STEP 3940

 -------------------------------------------------------------------------------
                             SWR1 OUTPUT PRINT TIMES
                        STRESS PERIOD   25   TIME STEP  3940
 --------------- --------------- --------------- --------------- ---------------
     0.55920E+06                                                                
 -------------------------------------------------------------------------------
 
 SOLVING FOR HEAD 
 INITIAL HNEW IS AN EXACT SOLUTION.

 NO OUTPUT CONTROL FOR STRESS PERIOD   25   TIME STEP 3941

 -------------------------------------------------------------------------------
                             SWR1 OUTPUT PRINT TIMES
                        STRESS PERIOD   25   TIME STEP  3941
 --------------- --------------- --------------- --------------- ---------------
     0.55932E+06                                                                
 -------------------------------------------------------------------------------
 
 SOLVING FOR HEAD 
 INITIAL HNEW IS AN EXACT SOLUTION.

 NO OUTPUT CONTROL FOR STRESS PERIOD   25   TIME STEP 3942

 -------------------------------------------------------------------------------
                             SWR1 OUTPUT PRINT TIMES
                        STRESS PERIOD   25   TIME STEP  3942
 --------------- --------------- --------------- --------------- ---------------
     0.55944E+06                                                                
 -------------------------------------------------------------------------------
 
 SOLVING FOR HEAD 
 INITIAL HNEW IS AN EXACT SOLUTION.

 NO OUTPUT CONTROL FOR STRESS PERIOD   25   TIME STEP 3943

 -------------------------------------------------------------------------------
                             SWR1 OUTPUT PRINT TIMES
                        STRESS PERIOD   25   TIME STEP  3943
 --------------- --------------- --------------- --------------- ---------------
     0.55956E+06                                                                
 -------------------------------------------------------------------------------
 
 SOLVING FOR HEAD 
 INITIAL HNEW IS AN EXACT SOLUTION.

 NO OUTPUT CONTROL FOR STRESS PERIOD   25   TIME STEP 3944

 -------------------------------------------------------------------------------
                             SWR1 OUTPUT PRINT TIMES
                        STRESS PERIOD   25   TIME STEP  3944
 --------------- --------------- --------------- --------------- ---------------
     0.55968E+06                                                                
 -------------------------------------------------------------------------------
 
 SOLVING FOR HEAD 
 INITIAL HNEW IS AN EXACT SOLUTION.

 NO OUTPUT CONTROL FOR STRESS PERIOD   25   TIME STEP 3945

 -------------------------------------------------------------------------------
                             SWR1 OUTPUT PRINT TIMES
                        STRESS PERIOD   25   TIME STEP  3945
 --------------- --------------- --------------- --------------- ---------------
     0.55980E+06                                                                
 -------------------------------------------------------------------------------
 
 SOLVING FOR HEAD 
 INITIAL HNEW IS AN EXACT SOLUTION.

 NO OUTPUT CONTROL FOR STRESS PERIOD   25   TIME STEP 3946

 -------------------------------------------------------------------------------
                             SWR1 OUTPUT PRINT TIMES
                        STRESS PERIOD   25   TIME STEP  3946
 --------------- --------------- --------------- --------------- ---------------
     0.55992E+06                                                                
 -------------------------------------------------------------------------------
 
 SOLVING FOR HEAD 
 INITIAL HNEW IS AN EXACT SOLUTION.

 NO OUTPUT CONTROL FOR STRESS PERIOD   25   TIME STEP 3947

 -------------------------------------------------------------------------------
                             SWR1 OUTPUT PRINT TIMES
                        STRESS PERIOD   25   TIME STEP  3947
 --------------- --------------- --------------- --------------- ---------------
     0.56004E+06                                                                
 -------------------------------------------------------------------------------
 
 SOLVING FOR HEAD 
 INITIAL HNEW IS AN EXACT SOLUTION.

 NO OUTPUT CONTROL FOR STRESS PERIOD   25   TIME STEP 3948

 -------------------------------------------------------------------------------
                             SWR1 OUTPUT PRINT TIMES
                        STRESS PERIOD   25   TIME STEP  3948
 --------------- --------------- --------------- --------------- ---------------
     0.56016E+06                                                                
 -------------------------------------------------------------------------------
 
 SOLVING FOR HEAD 
 INITIAL HNEW IS AN EXACT SOLUTION.

 NO OUTPUT CONTROL FOR STRESS PERIOD   25   TIME STEP 3949

 -------------------------------------------------------------------------------
                             SWR1 OUTPUT PRINT TIMES
                        STRESS PERIOD   25   TIME STEP  3949
 --------------- --------------- --------------- --------------- ---------------
     0.56028E+06                                                                
 -------------------------------------------------------------------------------
 
 SOLVING FOR HEAD 
 INITIAL HNEW IS AN EXACT SOLUTION.

 NO OUTPUT CONTROL FOR STRESS PERIOD   25   TIME STEP 3950

 -------------------------------------------------------------------------------
                             SWR1 OUTPUT PRINT TIMES
                        STRESS PERIOD   25   TIME STEP  3950
 --------------- --------------- --------------- --------------- ---------------
     0.56040E+06                                                                
 -------------------------------------------------------------------------------
 
 SOLVING FOR HEAD 
 INITIAL HNEW IS AN EXACT SOLUTION.

 NO OUTPUT CONTROL FOR STRESS PERIOD   25   TIME STEP 3951

 -------------------------------------------------------------------------------
                             SWR1 OUTPUT PRINT TIMES
                        STRESS PERIOD   25   TIME STEP  3951
 --------------- --------------- --------------- --------------- ---------------
     0.56052E+06                                                                
 -------------------------------------------------------------------------------
 
 SOLVING FOR HEAD 
 INITIAL HNEW IS AN EXACT SOLUTION.

 NO OUTPUT CONTROL FOR STRESS PERIOD   25   TIME STEP 3952

 -------------------------------------------------------------------------------
                             SWR1 OUTPUT PRINT TIMES
                        STRESS PERIOD   25   TIME STEP  3952
 --------------- --------------- --------------- --------------- ---------------
     0.56064E+06                                                                
 -------------------------------------------------------------------------------
 
 SOLVING FOR HEAD 
 INITIAL HNEW IS AN EXACT SOLUTION.

 NO OUTPUT CONTROL FOR STRESS PERIOD   25   TIME STEP 3953

 -------------------------------------------------------------------------------
                             SWR1 OUTPUT PRINT TIMES
                        STRESS PERIOD   25   TIME STEP  3953
 --------------- --------------- --------------- --------------- ---------------
     0.56076E+06                                                                
 -------------------------------------------------------------------------------
 
 SOLVING FOR HEAD 
 INITIAL HNEW IS AN EXACT SOLUTION.

 NO OUTPUT CONTROL FOR STRESS PERIOD   25   TIME STEP 3954

 -------------------------------------------------------------------------------
                             SWR1 OUTPUT PRINT TIMES
                        STRESS PERIOD   25   TIME STEP  3954
 --------------- --------------- --------------- --------------- ---------------
     0.56088E+06                                                                
 -------------------------------------------------------------------------------
 
 SOLVING FOR HEAD 
 INITIAL HNEW IS AN EXACT SOLUTION.

 NO OUTPUT CONTROL FOR STRESS PERIOD   25   TIME STEP 3955

 -------------------------------------------------------------------------------
                             SWR1 OUTPUT PRINT TIMES
                        STRESS PERIOD   25   TIME STEP  3955
 --------------- --------------- --------------- --------------- ---------------
     0.56100E+06                                                                
 -------------------------------------------------------------------------------
 
 SOLVING FOR HEAD 
 INITIAL HNEW IS AN EXACT SOLUTION.

 NO OUTPUT CONTROL FOR STRESS PERIOD   25   TIME STEP 3956

 -------------------------------------------------------------------------------
                             SWR1 OUTPUT PRINT TIMES
                        STRESS PERIOD   25   TIME STEP  3956
 --------------- --------------- --------------- --------------- ---------------
     0.56112E+06                                                                
 -------------------------------------------------------------------------------
 
 SOLVING FOR HEAD 
 INITIAL HNEW IS AN EXACT SOLUTION.

 NO OUTPUT CONTROL FOR STRESS PERIOD   25   TIME STEP 3957

 -------------------------------------------------------------------------------
                             SWR1 OUTPUT PRINT TIMES
                        STRESS PERIOD   25   TIME STEP  3957
 --------------- --------------- --------------- --------------- ---------------
     0.56124E+06                                                                
 -------------------------------------------------------------------------------
 
 SOLVING FOR HEAD 
 INITIAL HNEW IS AN EXACT SOLUTION.

 NO OUTPUT CONTROL FOR STRESS PERIOD   25   TIME STEP 3958

 -------------------------------------------------------------------------------
                             SWR1 OUTPUT PRINT TIMES
                        STRESS PERIOD   25   TIME STEP  3958
 --------------- --------------- --------------- --------------- ---------------
     0.56136E+06                                                                
 -------------------------------------------------------------------------------
 
 SOLVING FOR HEAD 
 INITIAL HNEW IS AN EXACT SOLUTION.

 NO OUTPUT CONTROL FOR STRESS PERIOD   25   TIME STEP 3959

 -------------------------------------------------------------------------------
                             SWR1 OUTPUT PRINT TIMES
                        STRESS PERIOD   25   TIME STEP  3959
 --------------- --------------- --------------- --------------- ---------------
     0.56148E+06                                                                
 -------------------------------------------------------------------------------
 
 SOLVING FOR HEAD 
 INITIAL HNEW IS AN EXACT SOLUTION.

 NO OUTPUT CONTROL FOR STRESS PERIOD   25   TIME STEP 3960

 -------------------------------------------------------------------------------
                             SWR1 OUTPUT PRINT TIMES
                        STRESS PERIOD   25   TIME STEP  3960
 --------------- --------------- --------------- --------------- ---------------
     0.56160E+06                                                                
 -------------------------------------------------------------------------------
 
 SOLVING FOR HEAD 
 INITIAL HNEW IS AN EXACT SOLUTION.

 NO OUTPUT CONTROL FOR STRESS PERIOD   25   TIME STEP 3961

 -------------------------------------------------------------------------------
                             SWR1 OUTPUT PRINT TIMES
                        STRESS PERIOD   25   TIME STEP  3961
 --------------- --------------- --------------- --------------- ---------------
     0.56172E+06                                                                
 -------------------------------------------------------------------------------
 
 SOLVING FOR HEAD 
 INITIAL HNEW IS AN EXACT SOLUTION.

 NO OUTPUT CONTROL FOR STRESS PERIOD   25   TIME STEP 3962

 -------------------------------------------------------------------------------
                             SWR1 OUTPUT PRINT TIMES
                        STRESS PERIOD   25   TIME STEP  3962
 --------------- --------------- --------------- --------------- ---------------
     0.56184E+06                                                                
 -------------------------------------------------------------------------------
 
 SOLVING FOR HEAD 
 INITIAL HNEW IS AN EXACT SOLUTION.

 NO OUTPUT CONTROL FOR STRESS PERIOD   25   TIME STEP 3963

 -------------------------------------------------------------------------------
                             SWR1 OUTPUT PRINT TIMES
                        STRESS PERIOD   25   TIME STEP  3963
 --------------- --------------- --------------- --------------- ---------------
     0.56196E+06                                                                
 -------------------------------------------------------------------------------
 
 SOLVING FOR HEAD 
 INITIAL HNEW IS AN EXACT SOLUTION.

 NO OUTPUT CONTROL FOR STRESS PERIOD   25   TIME STEP 3964

 -------------------------------------------------------------------------------
                             SWR1 OUTPUT PRINT TIMES
                        STRESS PERIOD   25   TIME STEP  3964
 --------------- --------------- --------------- --------------- ---------------
     0.56208E+06                                                                
 -------------------------------------------------------------------------------
 
 SOLVING FOR HEAD 
 INITIAL HNEW IS AN EXACT SOLUTION.

 NO OUTPUT CONTROL FOR STRESS PERIOD   25   TIME STEP 3965

 -------------------------------------------------------------------------------
                             SWR1 OUTPUT PRINT TIMES
                        STRESS PERIOD   25   TIME STEP  3965
 --------------- --------------- --------------- --------------- ---------------
     0.56220E+06                                                                
 -------------------------------------------------------------------------------
 
 SOLVING FOR HEAD 
 INITIAL HNEW IS AN EXACT SOLUTION.

 NO OUTPUT CONTROL FOR STRESS PERIOD   25   TIME STEP 3966

 -------------------------------------------------------------------------------
                             SWR1 OUTPUT PRINT TIMES
                        STRESS PERIOD   25   TIME STEP  3966
 --------------- --------------- --------------- --------------- ---------------
     0.56232E+06                                                                
 -------------------------------------------------------------------------------
 
 SOLVING FOR HEAD 
 INITIAL HNEW IS AN EXACT SOLUTION.

 NO OUTPUT CONTROL FOR STRESS PERIOD   25   TIME STEP 3967

 -------------------------------------------------------------------------------
                             SWR1 OUTPUT PRINT TIMES
                        STRESS PERIOD   25   TIME STEP  3967
 --------------- --------------- --------------- --------------- ---------------
     0.56244E+06                                                                
 -------------------------------------------------------------------------------
 
 SOLVING FOR HEAD 
 INITIAL HNEW IS AN EXACT SOLUTION.

 NO OUTPUT CONTROL FOR STRESS PERIOD   25   TIME STEP 3968

 -------------------------------------------------------------------------------
                             SWR1 OUTPUT PRINT TIMES
                        STRESS PERIOD   25   TIME STEP  3968
 --------------- --------------- --------------- --------------- ---------------
     0.56256E+06                                                                
 -------------------------------------------------------------------------------
 
 SOLVING FOR HEAD 
 INITIAL HNEW IS AN EXACT SOLUTION.

 NO OUTPUT CONTROL FOR STRESS PERIOD   25   TIME STEP 3969

 -------------------------------------------------------------------------------
                             SWR1 OUTPUT PRINT TIMES
                        STRESS PERIOD   25   TIME STEP  3969
 --------------- --------------- --------------- --------------- ---------------
     0.56268E+06                                                                
 -------------------------------------------------------------------------------
 
 SOLVING FOR HEAD 
 INITIAL HNEW IS AN EXACT SOLUTION.

 NO OUTPUT CONTROL FOR STRESS PERIOD   25   TIME STEP 3970

 -------------------------------------------------------------------------------
                             SWR1 OUTPUT PRINT TIMES
                        STRESS PERIOD   25   TIME STEP  3970
 --------------- --------------- --------------- --------------- ---------------
     0.56280E+06                                                                
 -------------------------------------------------------------------------------
 
 SOLVING FOR HEAD 
 INITIAL HNEW IS AN EXACT SOLUTION.

 NO OUTPUT CONTROL FOR STRESS PERIOD   25   TIME STEP 3971

 -------------------------------------------------------------------------------
                             SWR1 OUTPUT PRINT TIMES
                        STRESS PERIOD   25   TIME STEP  3971
 --------------- --------------- --------------- --------------- ---------------
     0.56292E+06                                                                
 -------------------------------------------------------------------------------
 
 SOLVING FOR HEAD 
 INITIAL HNEW IS AN EXACT SOLUTION.

 NO OUTPUT CONTROL FOR STRESS PERIOD   25   TIME STEP 3972

 -------------------------------------------------------------------------------
                             SWR1 OUTPUT PRINT TIMES
                        STRESS PERIOD   25   TIME STEP  3972
 --------------- --------------- --------------- --------------- ---------------
     0.56304E+06                                                                
 -------------------------------------------------------------------------------
 
 SOLVING FOR HEAD 
 INITIAL HNEW IS AN EXACT SOLUTION.

 NO OUTPUT CONTROL FOR STRESS PERIOD   25   TIME STEP 3973

 -------------------------------------------------------------------------------
                             SWR1 OUTPUT PRINT TIMES
                        STRESS PERIOD   25   TIME STEP  3973
 --------------- --------------- --------------- --------------- ---------------
     0.56316E+06                                                                
 -------------------------------------------------------------------------------
 
 SOLVING FOR HEAD 
 INITIAL HNEW IS AN EXACT SOLUTION.

 NO OUTPUT CONTROL FOR STRESS PERIOD   25   TIME STEP 3974

 -------------------------------------------------------------------------------
                             SWR1 OUTPUT PRINT TIMES
                        STRESS PERIOD   25   TIME STEP  3974
 --------------- --------------- --------------- --------------- ---------------
     0.56328E+06                                                                
 -------------------------------------------------------------------------------
 
 SOLVING FOR HEAD 
 INITIAL HNEW IS AN EXACT SOLUTION.

 NO OUTPUT CONTROL FOR STRESS PERIOD   25   TIME STEP 3975

 -------------------------------------------------------------------------------
                             SWR1 OUTPUT PRINT TIMES
                        STRESS PERIOD   25   TIME STEP  3975
 --------------- --------------- --------------- --------------- ---------------
     0.56340E+06                                                                
 -------------------------------------------------------------------------------
 
 SOLVING FOR HEAD 
 INITIAL HNEW IS AN EXACT SOLUTION.

 NO OUTPUT CONTROL FOR STRESS PERIOD   25   TIME STEP 3976

 -------------------------------------------------------------------------------
                             SWR1 OUTPUT PRINT TIMES
                        STRESS PERIOD   25   TIME STEP  3976
 --------------- --------------- --------------- --------------- ---------------
     0.56352E+06                                                                
 -------------------------------------------------------------------------------
 
 SOLVING FOR HEAD 
 INITIAL HNEW IS AN EXACT SOLUTION.

 NO OUTPUT CONTROL FOR STRESS PERIOD   25   TIME STEP 3977

 -------------------------------------------------------------------------------
                             SWR1 OUTPUT PRINT TIMES
                        STRESS PERIOD   25   TIME STEP  3977
 --------------- --------------- --------------- --------------- ---------------
     0.56364E+06                                                                
 -------------------------------------------------------------------------------
 
 SOLVING FOR HEAD 
 INITIAL HNEW IS AN EXACT SOLUTION.

 NO OUTPUT CONTROL FOR STRESS PERIOD   25   TIME STEP 3978

 -------------------------------------------------------------------------------
                             SWR1 OUTPUT PRINT TIMES
                        STRESS PERIOD   25   TIME STEP  3978
 --------------- --------------- --------------- --------------- ---------------
     0.56376E+06                                                                
 -------------------------------------------------------------------------------
 
 SOLVING FOR HEAD 
 INITIAL HNEW IS AN EXACT SOLUTION.

 NO OUTPUT CONTROL FOR STRESS PERIOD   25   TIME STEP 3979

 -------------------------------------------------------------------------------
                             SWR1 OUTPUT PRINT TIMES
                        STRESS PERIOD   25   TIME STEP  3979
 --------------- --------------- --------------- --------------- ---------------
     0.56388E+06                                                                
 -------------------------------------------------------------------------------
 
 SOLVING FOR HEAD 
 INITIAL HNEW IS AN EXACT SOLUTION.

 NO OUTPUT CONTROL FOR STRESS PERIOD   25   TIME STEP 3980

 -------------------------------------------------------------------------------
                             SWR1 OUTPUT PRINT TIMES
                        STRESS PERIOD   25   TIME STEP  3980
 --------------- --------------- --------------- --------------- ---------------
     0.56400E+06                                                                
 -------------------------------------------------------------------------------
 
 SOLVING FOR HEAD 
 INITIAL HNEW IS AN EXACT SOLUTION.

 NO OUTPUT CONTROL FOR STRESS PERIOD   25   TIME STEP 3981

 -------------------------------------------------------------------------------
                             SWR1 OUTPUT PRINT TIMES
                        STRESS PERIOD   25   TIME STEP  3981
 --------------- --------------- --------------- --------------- ---------------
     0.56412E+06                                                                
 -------------------------------------------------------------------------------
 
 SOLVING FOR HEAD 
 INITIAL HNEW IS AN EXACT SOLUTION.

 NO OUTPUT CONTROL FOR STRESS PERIOD   25   TIME STEP 3982

 -------------------------------------------------------------------------------
                             SWR1 OUTPUT PRINT TIMES
                        STRESS PERIOD   25   TIME STEP  3982
 --------------- --------------- --------------- --------------- ---------------
     0.56424E+06                                                                
 -------------------------------------------------------------------------------
 
 SOLVING FOR HEAD 
 INITIAL HNEW IS AN EXACT SOLUTION.

 NO OUTPUT CONTROL FOR STRESS PERIOD   25   TIME STEP 3983

 -------------------------------------------------------------------------------
                             SWR1 OUTPUT PRINT TIMES
                        STRESS PERIOD   25   TIME STEP  3983
 --------------- --------------- --------------- --------------- ---------------
     0.56436E+06                                                                
 -------------------------------------------------------------------------------
 
 SOLVING FOR HEAD 
 INITIAL HNEW IS AN EXACT SOLUTION.

 NO OUTPUT CONTROL FOR STRESS PERIOD   25   TIME STEP 3984

 -------------------------------------------------------------------------------
                             SWR1 OUTPUT PRINT TIMES
                        STRESS PERIOD   25   TIME STEP  3984
 --------------- --------------- --------------- --------------- ---------------
     0.56448E+06                                                                
 -------------------------------------------------------------------------------
 
 SOLVING FOR HEAD 
 INITIAL HNEW IS AN EXACT SOLUTION.

 NO OUTPUT CONTROL FOR STRESS PERIOD   25   TIME STEP 3985

 -------------------------------------------------------------------------------
                             SWR1 OUTPUT PRINT TIMES
                        STRESS PERIOD   25   TIME STEP  3985
 --------------- --------------- --------------- --------------- ---------------
     0.56460E+06                                                                
 -------------------------------------------------------------------------------
 
 SOLVING FOR HEAD 
 INITIAL HNEW IS AN EXACT SOLUTION.

 NO OUTPUT CONTROL FOR STRESS PERIOD   25   TIME STEP 3986

 -------------------------------------------------------------------------------
                             SWR1 OUTPUT PRINT TIMES
                        STRESS PERIOD   25   TIME STEP  3986
 --------------- --------------- --------------- --------------- ---------------
     0.56472E+06                                                                
 -------------------------------------------------------------------------------
 
 SOLVING FOR HEAD 
 INITIAL HNEW IS AN EXACT SOLUTION.

 NO OUTPUT CONTROL FOR STRESS PERIOD   25   TIME STEP 3987

 -------------------------------------------------------------------------------
                             SWR1 OUTPUT PRINT TIMES
                        STRESS PERIOD   25   TIME STEP  3987
 --------------- --------------- --------------- --------------- ---------------
     0.56484E+06                                                                
 -------------------------------------------------------------------------------
 
 SOLVING FOR HEAD 
 INITIAL HNEW IS AN EXACT SOLUTION.

 NO OUTPUT CONTROL FOR STRESS PERIOD   25   TIME STEP 3988

 -------------------------------------------------------------------------------
                             SWR1 OUTPUT PRINT TIMES
                        STRESS PERIOD   25   TIME STEP  3988
 --------------- --------------- --------------- --------------- ---------------
     0.56496E+06                                                                
 -------------------------------------------------------------------------------
 
 SOLVING FOR HEAD 
 INITIAL HNEW IS AN EXACT SOLUTION.

 NO OUTPUT CONTROL FOR STRESS PERIOD   25   TIME STEP 3989

 -------------------------------------------------------------------------------
                             SWR1 OUTPUT PRINT TIMES
                        STRESS PERIOD   25   TIME STEP  3989
 --------------- --------------- --------------- --------------- ---------------
     0.56508E+06                                                                
 -------------------------------------------------------------------------------
 
 SOLVING FOR HEAD 
 INITIAL HNEW IS AN EXACT SOLUTION.

 NO OUTPUT CONTROL FOR STRESS PERIOD   25   TIME STEP 3990

 -------------------------------------------------------------------------------
                             SWR1 OUTPUT PRINT TIMES
                        STRESS PERIOD   25   TIME STEP  3990
 --------------- --------------- --------------- --------------- ---------------
     0.56520E+06                                                                
 -------------------------------------------------------------------------------
 
 SOLVING FOR HEAD 
 INITIAL HNEW IS AN EXACT SOLUTION.

 NO OUTPUT CONTROL FOR STRESS PERIOD   25   TIME STEP 3991

 -------------------------------------------------------------------------------
                             SWR1 OUTPUT PRINT TIMES
                        STRESS PERIOD   25   TIME STEP  3991
 --------------- --------------- --------------- --------------- ---------------
     0.56532E+06                                                                
 -------------------------------------------------------------------------------
 
 SOLVING FOR HEAD 
 INITIAL HNEW IS AN EXACT SOLUTION.

 NO OUTPUT CONTROL FOR STRESS PERIOD   25   TIME STEP 3992

 -------------------------------------------------------------------------------
                             SWR1 OUTPUT PRINT TIMES
                        STRESS PERIOD   25   TIME STEP  3992
 --------------- --------------- --------------- --------------- ---------------
     0.56544E+06                                                                
 -------------------------------------------------------------------------------
 
 SOLVING FOR HEAD 
 INITIAL HNEW IS AN EXACT SOLUTION.

 NO OUTPUT CONTROL FOR STRESS PERIOD   25   TIME STEP 3993

 -------------------------------------------------------------------------------
                             SWR1 OUTPUT PRINT TIMES
                        STRESS PERIOD   25   TIME STEP  3993
 --------------- --------------- --------------- --------------- ---------------
     0.56556E+06                                                                
 -------------------------------------------------------------------------------
 
 SOLVING FOR HEAD 
 INITIAL HNEW IS AN EXACT SOLUTION.

 NO OUTPUT CONTROL FOR STRESS PERIOD   25   TIME STEP 3994

 -------------------------------------------------------------------------------
                             SWR1 OUTPUT PRINT TIMES
                        STRESS PERIOD   25   TIME STEP  3994
 --------------- --------------- --------------- --------------- ---------------
     0.56568E+06                                                                
 -------------------------------------------------------------------------------
 
 SOLVING FOR HEAD 
 INITIAL HNEW IS AN EXACT SOLUTION.

 NO OUTPUT CONTROL FOR STRESS PERIOD   25   TIME STEP 3995

 -------------------------------------------------------------------------------
                             SWR1 OUTPUT PRINT TIMES
                        STRESS PERIOD   25   TIME STEP  3995
 --------------- --------------- --------------- --------------- ---------------
     0.56580E+06                                                                
 -------------------------------------------------------------------------------
 
 SOLVING FOR HEAD 
 INITIAL HNEW IS AN EXACT SOLUTION.

 NO OUTPUT CONTROL FOR STRESS PERIOD   25   TIME STEP 3996

 -------------------------------------------------------------------------------
                             SWR1 OUTPUT PRINT TIMES
                        STRESS PERIOD   25   TIME STEP  3996
 --------------- --------------- --------------- --------------- ---------------
     0.56592E+06                                                                
 -------------------------------------------------------------------------------
 
 SOLVING FOR HEAD 
 INITIAL HNEW IS AN EXACT SOLUTION.

 NO OUTPUT CONTROL FOR STRESS PERIOD   25   TIME STEP 3997

 -------------------------------------------------------------------------------
                             SWR1 OUTPUT PRINT TIMES
                        STRESS PERIOD   25   TIME STEP  3997
 --------------- --------------- --------------- --------------- ---------------
     0.56604E+06                                                                
 -------------------------------------------------------------------------------
 
 SOLVING FOR HEAD 
 INITIAL HNEW IS AN EXACT SOLUTION.

 NO OUTPUT CONTROL FOR STRESS PERIOD   25   TIME STEP 3998

 -------------------------------------------------------------------------------
                             SWR1 OUTPUT PRINT TIMES
                        STRESS PERIOD   25   TIME STEP  3998
 --------------- --------------- --------------- --------------- ---------------
     0.56616E+06                                                                
 -------------------------------------------------------------------------------
 
 SOLVING FOR HEAD 
 INITIAL HNEW IS AN EXACT SOLUTION.

 NO OUTPUT CONTROL FOR STRESS PERIOD   25   TIME STEP 3999

 -------------------------------------------------------------------------------
                             SWR1 OUTPUT PRINT TIMES
                        STRESS PERIOD   25   TIME STEP  3999
 --------------- --------------- --------------- --------------- ---------------
     0.56628E+06                                                                
 -------------------------------------------------------------------------------
 
 SOLVING FOR HEAD 
 INITIAL HNEW IS AN EXACT SOLUTION.

 NO OUTPUT CONTROL FOR STRESS PERIOD   25   TIME STEP 4000

 -------------------------------------------------------------------------------
                             SWR1 OUTPUT PRINT TIMES
                        STRESS PERIOD   25   TIME STEP  4000
 --------------- --------------- --------------- --------------- ---------------
     0.56640E+06                                                                
 -------------------------------------------------------------------------------
 
 SOLVING FOR HEAD 
 INITIAL HNEW IS AN EXACT SOLUTION.

 NO OUTPUT CONTROL FOR STRESS PERIOD   25   TIME STEP 4001

 -------------------------------------------------------------------------------
                             SWR1 OUTPUT PRINT TIMES
                        STRESS PERIOD   25   TIME STEP  4001
 --------------- --------------- --------------- --------------- ---------------
     0.56652E+06                                                                
 -------------------------------------------------------------------------------
 
 SOLVING FOR HEAD 
 INITIAL HNEW IS AN EXACT SOLUTION.

 NO OUTPUT CONTROL FOR STRESS PERIOD   25   TIME STEP 4002

 -------------------------------------------------------------------------------
                             SWR1 OUTPUT PRINT TIMES
                        STRESS PERIOD   25   TIME STEP  4002
 --------------- --------------- --------------- --------------- ---------------
     0.56664E+06                                                                
 -------------------------------------------------------------------------------
 
 SOLVING FOR HEAD 
 INITIAL HNEW IS AN EXACT SOLUTION.

 NO OUTPUT CONTROL FOR STRESS PERIOD   25   TIME STEP 4003

 -------------------------------------------------------------------------------
                             SWR1 OUTPUT PRINT TIMES
                        STRESS PERIOD   25   TIME STEP  4003
 --------------- --------------- --------------- --------------- ---------------
     0.56676E+06                                                                
 -------------------------------------------------------------------------------
 
 SOLVING FOR HEAD 
 INITIAL HNEW IS AN EXACT SOLUTION.

 NO OUTPUT CONTROL FOR STRESS PERIOD   25   TIME STEP 4004

 -------------------------------------------------------------------------------
                             SWR1 OUTPUT PRINT TIMES
                        STRESS PERIOD   25   TIME STEP  4004
 --------------- --------------- --------------- --------------- ---------------
     0.56688E+06                                                                
 -------------------------------------------------------------------------------
 
 SOLVING FOR HEAD 
 INITIAL HNEW IS AN EXACT SOLUTION.

 NO OUTPUT CONTROL FOR STRESS PERIOD   25   TIME STEP 4005

 -------------------------------------------------------------------------------
                             SWR1 OUTPUT PRINT TIMES
                        STRESS PERIOD   25   TIME STEP  4005
 --------------- --------------- --------------- --------------- ---------------
     0.56700E+06                                                                
 -------------------------------------------------------------------------------
 
 SOLVING FOR HEAD 
 INITIAL HNEW IS AN EXACT SOLUTION.

 NO OUTPUT CONTROL FOR STRESS PERIOD   25   TIME STEP 4006

 -------------------------------------------------------------------------------
                             SWR1 OUTPUT PRINT TIMES
                        STRESS PERIOD   25   TIME STEP  4006
 --------------- --------------- --------------- --------------- ---------------
     0.56712E+06                                                                
 -------------------------------------------------------------------------------
 
 SOLVING FOR HEAD 
 INITIAL HNEW IS AN EXACT SOLUTION.

 NO OUTPUT CONTROL FOR STRESS PERIOD   25   TIME STEP 4007

 -------------------------------------------------------------------------------
                             SWR1 OUTPUT PRINT TIMES
                        STRESS PERIOD   25   TIME STEP  4007
 --------------- --------------- --------------- --------------- ---------------
     0.56724E+06                                                                
 -------------------------------------------------------------------------------
 
 SOLVING FOR HEAD 
 INITIAL HNEW IS AN EXACT SOLUTION.

 NO OUTPUT CONTROL FOR STRESS PERIOD   25   TIME STEP 4008

 -------------------------------------------------------------------------------
                             SWR1 OUTPUT PRINT TIMES
                        STRESS PERIOD   25   TIME STEP  4008
 --------------- --------------- --------------- --------------- ---------------
     0.56736E+06                                                                
 -------------------------------------------------------------------------------
 
 SOLVING FOR HEAD 
 INITIAL HNEW IS AN EXACT SOLUTION.

 NO OUTPUT CONTROL FOR STRESS PERIOD   25   TIME STEP 4009

 -------------------------------------------------------------------------------
                             SWR1 OUTPUT PRINT TIMES
                        STRESS PERIOD   25   TIME STEP  4009
 --------------- --------------- --------------- --------------- ---------------
     0.56748E+06                                                                
 -------------------------------------------------------------------------------
 
 SOLVING FOR HEAD 
 INITIAL HNEW IS AN EXACT SOLUTION.

 NO OUTPUT CONTROL FOR STRESS PERIOD   25   TIME STEP 4010

 -------------------------------------------------------------------------------
                             SWR1 OUTPUT PRINT TIMES
                        STRESS PERIOD   25   TIME STEP  4010
 --------------- --------------- --------------- --------------- ---------------
     0.56760E+06                                                                
 -------------------------------------------------------------------------------
 
 SOLVING FOR HEAD 
 INITIAL HNEW IS AN EXACT SOLUTION.

 NO OUTPUT CONTROL FOR STRESS PERIOD   25   TIME STEP 4011

 -------------------------------------------------------------------------------
                             SWR1 OUTPUT PRINT TIMES
                        STRESS PERIOD   25   TIME STEP  4011
 --------------- --------------- --------------- --------------- ---------------
     0.56772E+06                                                                
 -------------------------------------------------------------------------------
 
 SOLVING FOR HEAD 
 INITIAL HNEW IS AN EXACT SOLUTION.

 NO OUTPUT CONTROL FOR STRESS PERIOD   25   TIME STEP 4012

 -------------------------------------------------------------------------------
                             SWR1 OUTPUT PRINT TIMES
                        STRESS PERIOD   25   TIME STEP  4012
 --------------- --------------- --------------- --------------- ---------------
     0.56784E+06                                                                
 -------------------------------------------------------------------------------
 
 SOLVING FOR HEAD 
 INITIAL HNEW IS AN EXACT SOLUTION.

 NO OUTPUT CONTROL FOR STRESS PERIOD   25   TIME STEP 4013

 -------------------------------------------------------------------------------
                             SWR1 OUTPUT PRINT TIMES
                        STRESS PERIOD   25   TIME STEP  4013
 --------------- --------------- --------------- --------------- ---------------
     0.56796E+06                                                                
 -------------------------------------------------------------------------------
 
 SOLVING FOR HEAD 
 INITIAL HNEW IS AN EXACT SOLUTION.

 NO OUTPUT CONTROL FOR STRESS PERIOD   25   TIME STEP 4014

 -------------------------------------------------------------------------------
                             SWR1 OUTPUT PRINT TIMES
                        STRESS PERIOD   25   TIME STEP  4014
 --------------- --------------- --------------- --------------- ---------------
     0.56808E+06                                                                
 -------------------------------------------------------------------------------
 
 SOLVING FOR HEAD 
 INITIAL HNEW IS AN EXACT SOLUTION.

 NO OUTPUT CONTROL FOR STRESS PERIOD   25   TIME STEP 4015

 -------------------------------------------------------------------------------
                             SWR1 OUTPUT PRINT TIMES
                        STRESS PERIOD   25   TIME STEP  4015
 --------------- --------------- --------------- --------------- ---------------
     0.56820E+06                                                                
 -------------------------------------------------------------------------------
 
 SOLVING FOR HEAD 
 INITIAL HNEW IS AN EXACT SOLUTION.

 NO OUTPUT CONTROL FOR STRESS PERIOD   25   TIME STEP 4016

 -------------------------------------------------------------------------------
                             SWR1 OUTPUT PRINT TIMES
                        STRESS PERIOD   25   TIME STEP  4016
 --------------- --------------- --------------- --------------- ---------------
     0.56832E+06                                                                
 -------------------------------------------------------------------------------
 
 SOLVING FOR HEAD 
 INITIAL HNEW IS AN EXACT SOLUTION.

 NO OUTPUT CONTROL FOR STRESS PERIOD   25   TIME STEP 4017

 -------------------------------------------------------------------------------
                             SWR1 OUTPUT PRINT TIMES
                        STRESS PERIOD   25   TIME STEP  4017
 --------------- --------------- --------------- --------------- ---------------
     0.56844E+06                                                                
 -------------------------------------------------------------------------------
 
 SOLVING FOR HEAD 
 INITIAL HNEW IS AN EXACT SOLUTION.

 NO OUTPUT CONTROL FOR STRESS PERIOD   25   TIME STEP 4018

 -------------------------------------------------------------------------------
                             SWR1 OUTPUT PRINT TIMES
                        STRESS PERIOD   25   TIME STEP  4018
 --------------- --------------- --------------- --------------- ---------------
     0.56856E+06                                                                
 -------------------------------------------------------------------------------
 
 SOLVING FOR HEAD 
 INITIAL HNEW IS AN EXACT SOLUTION.

 NO OUTPUT CONTROL FOR STRESS PERIOD   25   TIME STEP 4019

 -------------------------------------------------------------------------------
                             SWR1 OUTPUT PRINT TIMES
                        STRESS PERIOD   25   TIME STEP  4019
 --------------- --------------- --------------- --------------- ---------------
     0.56868E+06                                                                
 -------------------------------------------------------------------------------
 
 SOLVING FOR HEAD 
 INITIAL HNEW IS AN EXACT SOLUTION.

 NO OUTPUT CONTROL FOR STRESS PERIOD   25   TIME STEP 4020

 -------------------------------------------------------------------------------
                             SWR1 OUTPUT PRINT TIMES
                        STRESS PERIOD   25   TIME STEP  4020
 --------------- --------------- --------------- --------------- ---------------
     0.56880E+06                                                                
 -------------------------------------------------------------------------------
 
 SOLVING FOR HEAD 
 INITIAL HNEW IS AN EXACT SOLUTION.

 NO OUTPUT CONTROL FOR STRESS PERIOD   25   TIME STEP 4021

 -------------------------------------------------------------------------------
                             SWR1 OUTPUT PRINT TIMES
                        STRESS PERIOD   25   TIME STEP  4021
 --------------- --------------- --------------- --------------- ---------------
     0.56892E+06                                                                
 -------------------------------------------------------------------------------
 
 SOLVING FOR HEAD 
 INITIAL HNEW IS AN EXACT SOLUTION.

 NO OUTPUT CONTROL FOR STRESS PERIOD   25   TIME STEP 4022

 -------------------------------------------------------------------------------
                             SWR1 OUTPUT PRINT TIMES
                        STRESS PERIOD   25   TIME STEP  4022
 --------------- --------------- --------------- --------------- ---------------
     0.56904E+06                                                                
 -------------------------------------------------------------------------------
 
 SOLVING FOR HEAD 
 INITIAL HNEW IS AN EXACT SOLUTION.

 NO OUTPUT CONTROL FOR STRESS PERIOD   25   TIME STEP 4023

 -------------------------------------------------------------------------------
                             SWR1 OUTPUT PRINT TIMES
                        STRESS PERIOD   25   TIME STEP  4023
 --------------- --------------- --------------- --------------- ---------------
     0.56916E+06                                                                
 -------------------------------------------------------------------------------
 
 SOLVING FOR HEAD 
 INITIAL HNEW IS AN EXACT SOLUTION.

 NO OUTPUT CONTROL FOR STRESS PERIOD   25   TIME STEP 4024

 -------------------------------------------------------------------------------
                             SWR1 OUTPUT PRINT TIMES
                        STRESS PERIOD   25   TIME STEP  4024
 --------------- --------------- --------------- --------------- ---------------
     0.56928E+06                                                                
 -------------------------------------------------------------------------------
 
 SOLVING FOR HEAD 
 INITIAL HNEW IS AN EXACT SOLUTION.

 NO OUTPUT CONTROL FOR STRESS PERIOD   25   TIME STEP 4025

 -------------------------------------------------------------------------------
                             SWR1 OUTPUT PRINT TIMES
                        STRESS PERIOD   25   TIME STEP  4025
 --------------- --------------- --------------- --------------- ---------------
     0.56940E+06                                                                
 -------------------------------------------------------------------------------
 
 SOLVING FOR HEAD 
 INITIAL HNEW IS AN EXACT SOLUTION.

 NO OUTPUT CONTROL FOR STRESS PERIOD   25   TIME STEP 4026

 -------------------------------------------------------------------------------
                             SWR1 OUTPUT PRINT TIMES
                        STRESS PERIOD   25   TIME STEP  4026
 --------------- --------------- --------------- --------------- ---------------
     0.56952E+06                                                                
 -------------------------------------------------------------------------------
 
 SOLVING FOR HEAD 
 INITIAL HNEW IS AN EXACT SOLUTION.

 NO OUTPUT CONTROL FOR STRESS PERIOD   25   TIME STEP 4027

 -------------------------------------------------------------------------------
                             SWR1 OUTPUT PRINT TIMES
                        STRESS PERIOD   25   TIME STEP  4027
 --------------- --------------- --------------- --------------- ---------------
     0.56964E+06                                                                
 -------------------------------------------------------------------------------
 
 SOLVING FOR HEAD 
 INITIAL HNEW IS AN EXACT SOLUTION.

 NO OUTPUT CONTROL FOR STRESS PERIOD   25   TIME STEP 4028

 -------------------------------------------------------------------------------
                             SWR1 OUTPUT PRINT TIMES
                        STRESS PERIOD   25   TIME STEP  4028
 --------------- --------------- --------------- --------------- ---------------
     0.56976E+06                                                                
 -------------------------------------------------------------------------------
 
 SOLVING FOR HEAD 
 INITIAL HNEW IS AN EXACT SOLUTION.

 NO OUTPUT CONTROL FOR STRESS PERIOD   25   TIME STEP 4029

 -------------------------------------------------------------------------------
                             SWR1 OUTPUT PRINT TIMES
                        STRESS PERIOD   25   TIME STEP  4029
 --------------- --------------- --------------- --------------- ---------------
     0.56988E+06                                                                
 -------------------------------------------------------------------------------
 
 SOLVING FOR HEAD 
 INITIAL HNEW IS AN EXACT SOLUTION.

 NO OUTPUT CONTROL FOR STRESS PERIOD   25   TIME STEP 4030

 -------------------------------------------------------------------------------
                             SWR1 OUTPUT PRINT TIMES
                        STRESS PERIOD   25   TIME STEP  4030
 --------------- --------------- --------------- --------------- ---------------
     0.57000E+06                                                                
 -------------------------------------------------------------------------------
 
 SOLVING FOR HEAD 
 INITIAL HNEW IS AN EXACT SOLUTION.

 NO OUTPUT CONTROL FOR STRESS PERIOD   25   TIME STEP 4031

 -------------------------------------------------------------------------------
                             SWR1 OUTPUT PRINT TIMES
                        STRESS PERIOD   25   TIME STEP  4031
 --------------- --------------- --------------- --------------- ---------------
     0.57012E+06                                                                
 -------------------------------------------------------------------------------
 
 SOLVING FOR HEAD 
 INITIAL HNEW IS AN EXACT SOLUTION.

 NO OUTPUT CONTROL FOR STRESS PERIOD   25   TIME STEP 4032

 -------------------------------------------------------------------------------
                             SWR1 OUTPUT PRINT TIMES
                        STRESS PERIOD   25   TIME STEP  4032
 --------------- --------------- --------------- --------------- ---------------
     0.57024E+06                                                                
 -------------------------------------------------------------------------------
 
 SOLVING FOR HEAD 
 INITIAL HNEW IS AN EXACT SOLUTION.

 NO OUTPUT CONTROL FOR STRESS PERIOD   25   TIME STEP 4033

 -------------------------------------------------------------------------------
                             SWR1 OUTPUT PRINT TIMES
                        STRESS PERIOD   25   TIME STEP  4033
 --------------- --------------- --------------- --------------- ---------------
     0.57036E+06                                                                
 -------------------------------------------------------------------------------
 
 SOLVING FOR HEAD 
 INITIAL HNEW IS AN EXACT SOLUTION.

 NO OUTPUT CONTROL FOR STRESS PERIOD   25   TIME STEP 4034

 -------------------------------------------------------------------------------
                             SWR1 OUTPUT PRINT TIMES
                        STRESS PERIOD   25   TIME STEP  4034
 --------------- --------------- --------------- --------------- ---------------
     0.57048E+06                                                                
 -------------------------------------------------------------------------------
 
 SOLVING FOR HEAD 
 INITIAL HNEW IS AN EXACT SOLUTION.

 NO OUTPUT CONTROL FOR STRESS PERIOD   25   TIME STEP 4035

 -------------------------------------------------------------------------------
                             SWR1 OUTPUT PRINT TIMES
                        STRESS PERIOD   25   TIME STEP  4035
 --------------- --------------- --------------- --------------- ---------------
     0.57060E+06                                                                
 -------------------------------------------------------------------------------
 
 SOLVING FOR HEAD 
 INITIAL HNEW IS AN EXACT SOLUTION.

 NO OUTPUT CONTROL FOR STRESS PERIOD   25   TIME STEP 4036

 -------------------------------------------------------------------------------
                             SWR1 OUTPUT PRINT TIMES
                        STRESS PERIOD   25   TIME STEP  4036
 --------------- --------------- --------------- --------------- ---------------
     0.57072E+06                                                                
 -------------------------------------------------------------------------------
 
 SOLVING FOR HEAD 
 INITIAL HNEW IS AN EXACT SOLUTION.

 NO OUTPUT CONTROL FOR STRESS PERIOD   25   TIME STEP 4037

 -------------------------------------------------------------------------------
                             SWR1 OUTPUT PRINT TIMES
                        STRESS PERIOD   25   TIME STEP  4037
 --------------- --------------- --------------- --------------- ---------------
     0.57084E+06                                                                
 -------------------------------------------------------------------------------
 
 SOLVING FOR HEAD 
 INITIAL HNEW IS AN EXACT SOLUTION.

 NO OUTPUT CONTROL FOR STRESS PERIOD   25   TIME STEP 4038

 -------------------------------------------------------------------------------
                             SWR1 OUTPUT PRINT TIMES
                        STRESS PERIOD   25   TIME STEP  4038
 --------------- --------------- --------------- --------------- ---------------
     0.57096E+06                                                                
 -------------------------------------------------------------------------------
 
 SOLVING FOR HEAD 
 INITIAL HNEW IS AN EXACT SOLUTION.

 NO OUTPUT CONTROL FOR STRESS PERIOD   25   TIME STEP 4039

 -------------------------------------------------------------------------------
                             SWR1 OUTPUT PRINT TIMES
                        STRESS PERIOD   25   TIME STEP  4039
 --------------- --------------- --------------- --------------- ---------------
     0.57108E+06                                                                
 -------------------------------------------------------------------------------
 
 SOLVING FOR HEAD 
 INITIAL HNEW IS AN EXACT SOLUTION.

 NO OUTPUT CONTROL FOR STRESS PERIOD   25   TIME STEP 4040

 -------------------------------------------------------------------------------
                             SWR1 OUTPUT PRINT TIMES
                        STRESS PERIOD   25   TIME STEP  4040
 --------------- --------------- --------------- --------------- ---------------
     0.57120E+06                                                                
 -------------------------------------------------------------------------------
 
 SOLVING FOR HEAD 
 INITIAL HNEW IS AN EXACT SOLUTION.

 NO OUTPUT CONTROL FOR STRESS PERIOD   25   TIME STEP 4041

 -------------------------------------------------------------------------------
                             SWR1 OUTPUT PRINT TIMES
                        STRESS PERIOD   25   TIME STEP  4041
 --------------- --------------- --------------- --------------- ---------------
     0.57132E+06                                                                
 -------------------------------------------------------------------------------
 
 SOLVING FOR HEAD 
 INITIAL HNEW IS AN EXACT SOLUTION.

 NO OUTPUT CONTROL FOR STRESS PERIOD   25   TIME STEP 4042

 -------------------------------------------------------------------------------
                             SWR1 OUTPUT PRINT TIMES
                        STRESS PERIOD   25   TIME STEP  4042
 --------------- --------------- --------------- --------------- ---------------
     0.57144E+06                                                                
 -------------------------------------------------------------------------------
 
 SOLVING FOR HEAD 
 INITIAL HNEW IS AN EXACT SOLUTION.

 NO OUTPUT CONTROL FOR STRESS PERIOD   25   TIME STEP 4043

 -------------------------------------------------------------------------------
                             SWR1 OUTPUT PRINT TIMES
                        STRESS PERIOD   25   TIME STEP  4043
 --------------- --------------- --------------- --------------- ---------------
     0.57156E+06                                                                
 -------------------------------------------------------------------------------
 
 SOLVING FOR HEAD 
 INITIAL HNEW IS AN EXACT SOLUTION.

 NO OUTPUT CONTROL FOR STRESS PERIOD   25   TIME STEP 4044

 -------------------------------------------------------------------------------
                             SWR1 OUTPUT PRINT TIMES
                        STRESS PERIOD   25   TIME STEP  4044
 --------------- --------------- --------------- --------------- ---------------
     0.57168E+06                                                                
 -------------------------------------------------------------------------------
 
 SOLVING FOR HEAD 
 INITIAL HNEW IS AN EXACT SOLUTION.

 NO OUTPUT CONTROL FOR STRESS PERIOD   25   TIME STEP 4045

 -------------------------------------------------------------------------------
                             SWR1 OUTPUT PRINT TIMES
                        STRESS PERIOD   25   TIME STEP  4045
 --------------- --------------- --------------- --------------- ---------------
     0.57180E+06                                                                
 -------------------------------------------------------------------------------
 
 SOLVING FOR HEAD 
 INITIAL HNEW IS AN EXACT SOLUTION.

 NO OUTPUT CONTROL FOR STRESS PERIOD   25   TIME STEP 4046

 -------------------------------------------------------------------------------
                             SWR1 OUTPUT PRINT TIMES
                        STRESS PERIOD   25   TIME STEP  4046
 --------------- --------------- --------------- --------------- ---------------
     0.57192E+06                                                                
 -------------------------------------------------------------------------------
 
 SOLVING FOR HEAD 
 INITIAL HNEW IS AN EXACT SOLUTION.

 NO OUTPUT CONTROL FOR STRESS PERIOD   25   TIME STEP 4047

 -------------------------------------------------------------------------------
                             SWR1 OUTPUT PRINT TIMES
                        STRESS PERIOD   25   TIME STEP  4047
 --------------- --------------- --------------- --------------- ---------------
     0.57204E+06                                                                
 -------------------------------------------------------------------------------
 
 SOLVING FOR HEAD 
 INITIAL HNEW IS AN EXACT SOLUTION.

 NO OUTPUT CONTROL FOR STRESS PERIOD   25   TIME STEP 4048

 -------------------------------------------------------------------------------
                             SWR1 OUTPUT PRINT TIMES
                        STRESS PERIOD   25   TIME STEP  4048
 --------------- --------------- --------------- --------------- ---------------
     0.57216E+06                                                                
 -------------------------------------------------------------------------------
 
 SOLVING FOR HEAD 
 INITIAL HNEW IS AN EXACT SOLUTION.

 NO OUTPUT CONTROL FOR STRESS PERIOD   25   TIME STEP 4049

 -------------------------------------------------------------------------------
                             SWR1 OUTPUT PRINT TIMES
                        STRESS PERIOD   25   TIME STEP  4049
 --------------- --------------- --------------- --------------- ---------------
     0.57228E+06                                                                
 -------------------------------------------------------------------------------
 
 SOLVING FOR HEAD 
 INITIAL HNEW IS AN EXACT SOLUTION.

 NO OUTPUT CONTROL FOR STRESS PERIOD   25   TIME STEP 4050

 -------------------------------------------------------------------------------
                             SWR1 OUTPUT PRINT TIMES
                        STRESS PERIOD   25   TIME STEP  4050
 --------------- --------------- --------------- --------------- ---------------
     0.57240E+06                                                                
 -------------------------------------------------------------------------------
 
 SOLVING FOR HEAD 
 INITIAL HNEW IS AN EXACT SOLUTION.

 NO OUTPUT CONTROL FOR STRESS PERIOD   25   TIME STEP 4051

 -------------------------------------------------------------------------------
                             SWR1 OUTPUT PRINT TIMES
                        STRESS PERIOD   25   TIME STEP  4051
 --------------- --------------- --------------- --------------- ---------------
     0.57252E+06                                                                
 -------------------------------------------------------------------------------
 
 SOLVING FOR HEAD 
 INITIAL HNEW IS AN EXACT SOLUTION.

 NO OUTPUT CONTROL FOR STRESS PERIOD   25   TIME STEP 4052

 -------------------------------------------------------------------------------
                             SWR1 OUTPUT PRINT TIMES
                        STRESS PERIOD   25   TIME STEP  4052
 --------------- --------------- --------------- --------------- ---------------
     0.57264E+06                                                                
 -------------------------------------------------------------------------------
 
 SOLVING FOR HEAD 
 INITIAL HNEW IS AN EXACT SOLUTION.

 NO OUTPUT CONTROL FOR STRESS PERIOD   25   TIME STEP 4053

 -------------------------------------------------------------------------------
                             SWR1 OUTPUT PRINT TIMES
                        STRESS PERIOD   25   TIME STEP  4053
 --------------- --------------- --------------- --------------- ---------------
     0.57276E+06                                                                
 -------------------------------------------------------------------------------
 
 SOLVING FOR HEAD 
 INITIAL HNEW IS AN EXACT SOLUTION.

 NO OUTPUT CONTROL FOR STRESS PERIOD   25   TIME STEP 4054

 -------------------------------------------------------------------------------
                             SWR1 OUTPUT PRINT TIMES
                        STRESS PERIOD   25   TIME STEP  4054
 --------------- --------------- --------------- --------------- ---------------
     0.57288E+06                                                                
 -------------------------------------------------------------------------------
 
 SOLVING FOR HEAD 
 INITIAL HNEW IS AN EXACT SOLUTION.

 NO OUTPUT CONTROL FOR STRESS PERIOD   25   TIME STEP 4055

 -------------------------------------------------------------------------------
                             SWR1 OUTPUT PRINT TIMES
                        STRESS PERIOD   25   TIME STEP  4055
 --------------- --------------- --------------- --------------- ---------------
     0.57300E+06                                                                
 -------------------------------------------------------------------------------
 
 SOLVING FOR HEAD 
 INITIAL HNEW IS AN EXACT SOLUTION.

 NO OUTPUT CONTROL FOR STRESS PERIOD   25   TIME STEP 4056

 -------------------------------------------------------------------------------
                             SWR1 OUTPUT PRINT TIMES
                        STRESS PERIOD   25   TIME STEP  4056
 --------------- --------------- --------------- --------------- ---------------
     0.57312E+06                                                                
 -------------------------------------------------------------------------------
 
 SOLVING FOR HEAD 
 INITIAL HNEW IS AN EXACT SOLUTION.

 NO OUTPUT CONTROL FOR STRESS PERIOD   25   TIME STEP 4057

 -------------------------------------------------------------------------------
                             SWR1 OUTPUT PRINT TIMES
                        STRESS PERIOD   25   TIME STEP  4057
 --------------- --------------- --------------- --------------- ---------------
     0.57324E+06                                                                
 -------------------------------------------------------------------------------
 
 SOLVING FOR HEAD 
 INITIAL HNEW IS AN EXACT SOLUTION.

 NO OUTPUT CONTROL FOR STRESS PERIOD   25   TIME STEP 4058

 -------------------------------------------------------------------------------
                             SWR1 OUTPUT PRINT TIMES
                        STRESS PERIOD   25   TIME STEP  4058
 --------------- --------------- --------------- --------------- ---------------
     0.57336E+06                                                                
 -------------------------------------------------------------------------------
 
 SOLVING FOR HEAD 
 INITIAL HNEW IS AN EXACT SOLUTION.

 NO OUTPUT CONTROL FOR STRESS PERIOD   25   TIME STEP 4059

 -------------------------------------------------------------------------------
                             SWR1 OUTPUT PRINT TIMES
                        STRESS PERIOD   25   TIME STEP  4059
 --------------- --------------- --------------- --------------- ---------------
     0.57348E+06                                                                
 -------------------------------------------------------------------------------
 
 SOLVING FOR HEAD 
 INITIAL HNEW IS AN EXACT SOLUTION.

 NO OUTPUT CONTROL FOR STRESS PERIOD   25   TIME STEP 4060

 -------------------------------------------------------------------------------
                             SWR1 OUTPUT PRINT TIMES
                        STRESS PERIOD   25   TIME STEP  4060
 --------------- --------------- --------------- --------------- ---------------
     0.57360E+06                                                                
 -------------------------------------------------------------------------------
 
 SOLVING FOR HEAD 
 INITIAL HNEW IS AN EXACT SOLUTION.

 NO OUTPUT CONTROL FOR STRESS PERIOD   25   TIME STEP 4061

 -------------------------------------------------------------------------------
                             SWR1 OUTPUT PRINT TIMES
                        STRESS PERIOD   25   TIME STEP  4061
 --------------- --------------- --------------- --------------- ---------------
     0.57372E+06                                                                
 -------------------------------------------------------------------------------
 
 SOLVING FOR HEAD 
 INITIAL HNEW IS AN EXACT SOLUTION.

 NO OUTPUT CONTROL FOR STRESS PERIOD   25   TIME STEP 4062

 -------------------------------------------------------------------------------
                             SWR1 OUTPUT PRINT TIMES
                        STRESS PERIOD   25   TIME STEP  4062
 --------------- --------------- --------------- --------------- ---------------
     0.57384E+06                                                                
 -------------------------------------------------------------------------------
 
 SOLVING FOR HEAD 
 INITIAL HNEW IS AN EXACT SOLUTION.

 NO OUTPUT CONTROL FOR STRESS PERIOD   25   TIME STEP 4063

 -------------------------------------------------------------------------------
                             SWR1 OUTPUT PRINT TIMES
                        STRESS PERIOD   25   TIME STEP  4063
 --------------- --------------- --------------- --------------- ---------------
     0.57396E+06                                                                
 -------------------------------------------------------------------------------
 
 SOLVING FOR HEAD 
 INITIAL HNEW IS AN EXACT SOLUTION.

 NO OUTPUT CONTROL FOR STRESS PERIOD   25   TIME STEP 4064

 -------------------------------------------------------------------------------
                             SWR1 OUTPUT PRINT TIMES
                        STRESS PERIOD   25   TIME STEP  4064
 --------------- --------------- --------------- --------------- ---------------
     0.57408E+06                                                                
 -------------------------------------------------------------------------------
 
 SOLVING FOR HEAD 
 INITIAL HNEW IS AN EXACT SOLUTION.

 NO OUTPUT CONTROL FOR STRESS PERIOD   25   TIME STEP 4065

 -------------------------------------------------------------------------------
                             SWR1 OUTPUT PRINT TIMES
                        STRESS PERIOD   25   TIME STEP  4065
 --------------- --------------- --------------- --------------- ---------------
     0.57420E+06                                                                
 -------------------------------------------------------------------------------
 
 SOLVING FOR HEAD 
 INITIAL HNEW IS AN EXACT SOLUTION.

 NO OUTPUT CONTROL FOR STRESS PERIOD   25   TIME STEP 4066

 -------------------------------------------------------------------------------
                             SWR1 OUTPUT PRINT TIMES
                        STRESS PERIOD   25   TIME STEP  4066
 --------------- --------------- --------------- --------------- ---------------
     0.57432E+06                                                                
 -------------------------------------------------------------------------------
 
 SOLVING FOR HEAD 
 INITIAL HNEW IS AN EXACT SOLUTION.

 NO OUTPUT CONTROL FOR STRESS PERIOD   25   TIME STEP 4067

 -------------------------------------------------------------------------------
                             SWR1 OUTPUT PRINT TIMES
                        STRESS PERIOD   25   TIME STEP  4067
 --------------- --------------- --------------- --------------- ---------------
     0.57444E+06                                                                
 -------------------------------------------------------------------------------
 
 SOLVING FOR HEAD 
 INITIAL HNEW IS AN EXACT SOLUTION.

 NO OUTPUT CONTROL FOR STRESS PERIOD   25   TIME STEP 4068

 -------------------------------------------------------------------------------
                             SWR1 OUTPUT PRINT TIMES
                        STRESS PERIOD   25   TIME STEP  4068
 --------------- --------------- --------------- --------------- ---------------
     0.57456E+06                                                                
 -------------------------------------------------------------------------------
 
 SOLVING FOR HEAD 
 INITIAL HNEW IS AN EXACT SOLUTION.

 NO OUTPUT CONTROL FOR STRESS PERIOD   25   TIME STEP 4069

 -------------------------------------------------------------------------------
                             SWR1 OUTPUT PRINT TIMES
                        STRESS PERIOD   25   TIME STEP  4069
 --------------- --------------- --------------- --------------- ---------------
     0.57468E+06                                                                
 -------------------------------------------------------------------------------
 
 SOLVING FOR HEAD 
 INITIAL HNEW IS AN EXACT SOLUTION.

 NO OUTPUT CONTROL FOR STRESS PERIOD   25   TIME STEP 4070

 -------------------------------------------------------------------------------
                             SWR1 OUTPUT PRINT TIMES
                        STRESS PERIOD   25   TIME STEP  4070
 --------------- --------------- --------------- --------------- ---------------
     0.57480E+06                                                                
 -------------------------------------------------------------------------------
 
 SOLVING FOR HEAD 
 INITIAL HNEW IS AN EXACT SOLUTION.

 NO OUTPUT CONTROL FOR STRESS PERIOD   25   TIME STEP 4071

 -------------------------------------------------------------------------------
                             SWR1 OUTPUT PRINT TIMES
                        STRESS PERIOD   25   TIME STEP  4071
 --------------- --------------- --------------- --------------- ---------------
     0.57492E+06                                                                
 -------------------------------------------------------------------------------
 
 SOLVING FOR HEAD 
 INITIAL HNEW IS AN EXACT SOLUTION.

 NO OUTPUT CONTROL FOR STRESS PERIOD   25   TIME STEP 4072

 -------------------------------------------------------------------------------
                             SWR1 OUTPUT PRINT TIMES
                        STRESS PERIOD   25   TIME STEP  4072
 --------------- --------------- --------------- --------------- ---------------
     0.57504E+06                                                                
 -------------------------------------------------------------------------------
 
 SOLVING FOR HEAD 
 INITIAL HNEW IS AN EXACT SOLUTION.

 NO OUTPUT CONTROL FOR STRESS PERIOD   25   TIME STEP 4073

 -------------------------------------------------------------------------------
                             SWR1 OUTPUT PRINT TIMES
                        STRESS PERIOD   25   TIME STEP  4073
 --------------- --------------- --------------- --------------- ---------------
     0.57516E+06                                                                
 -------------------------------------------------------------------------------
 
 SOLVING FOR HEAD 
 INITIAL HNEW IS AN EXACT SOLUTION.

 NO OUTPUT CONTROL FOR STRESS PERIOD   25   TIME STEP 4074

 -------------------------------------------------------------------------------
                             SWR1 OUTPUT PRINT TIMES
                        STRESS PERIOD   25   TIME STEP  4074
 --------------- --------------- --------------- --------------- ---------------
     0.57528E+06                                                                
 -------------------------------------------------------------------------------
 
 SOLVING FOR HEAD 
 INITIAL HNEW IS AN EXACT SOLUTION.

 NO OUTPUT CONTROL FOR STRESS PERIOD   25   TIME STEP 4075

 -------------------------------------------------------------------------------
                             SWR1 OUTPUT PRINT TIMES
                        STRESS PERIOD   25   TIME STEP  4075
 --------------- --------------- --------------- --------------- ---------------
     0.57540E+06                                                                
 -------------------------------------------------------------------------------
 
 SOLVING FOR HEAD 
 INITIAL HNEW IS AN EXACT SOLUTION.

 NO OUTPUT CONTROL FOR STRESS PERIOD   25   TIME STEP 4076

 -------------------------------------------------------------------------------
                             SWR1 OUTPUT PRINT TIMES
                        STRESS PERIOD   25   TIME STEP  4076
 --------------- --------------- --------------- --------------- ---------------
     0.57552E+06                                                                
 -------------------------------------------------------------------------------
 
 SOLVING FOR HEAD 
 INITIAL HNEW IS AN EXACT SOLUTION.

 NO OUTPUT CONTROL FOR STRESS PERIOD   25   TIME STEP 4077

 -------------------------------------------------------------------------------
                             SWR1 OUTPUT PRINT TIMES
                        STRESS PERIOD   25   TIME STEP  4077
 --------------- --------------- --------------- --------------- ---------------
     0.57564E+06                                                                
 -------------------------------------------------------------------------------
 
 SOLVING FOR HEAD 
 INITIAL HNEW IS AN EXACT SOLUTION.

 NO OUTPUT CONTROL FOR STRESS PERIOD   25   TIME STEP 4078

 -------------------------------------------------------------------------------
                             SWR1 OUTPUT PRINT TIMES
                        STRESS PERIOD   25   TIME STEP  4078
 --------------- --------------- --------------- --------------- ---------------
     0.57576E+06                                                                
 -------------------------------------------------------------------------------
 
 SOLVING FOR HEAD 
 INITIAL HNEW IS AN EXACT SOLUTION.

 NO OUTPUT CONTROL FOR STRESS PERIOD   25   TIME STEP 4079

 -------------------------------------------------------------------------------
                             SWR1 OUTPUT PRINT TIMES
                        STRESS PERIOD   25   TIME STEP  4079
 --------------- --------------- --------------- --------------- ---------------
     0.57588E+06                                                                
 -------------------------------------------------------------------------------
 
 SOLVING FOR HEAD 
 INITIAL HNEW IS AN EXACT SOLUTION.

 NO OUTPUT CONTROL FOR STRESS PERIOD   25   TIME STEP 4080

 -------------------------------------------------------------------------------
                             SWR1 OUTPUT PRINT TIMES
                        STRESS PERIOD   25   TIME STEP  4080
 --------------- --------------- --------------- --------------- ---------------
     0.57600E+06                                                                
 -------------------------------------------------------------------------------
 
 SOLVING FOR HEAD 
 INITIAL HNEW IS AN EXACT SOLUTION.

 NO OUTPUT CONTROL FOR STRESS PERIOD   25   TIME STEP 4081

 -------------------------------------------------------------------------------
                             SWR1 OUTPUT PRINT TIMES
                        STRESS PERIOD   25   TIME STEP  4081
 --------------- --------------- --------------- --------------- ---------------
     0.57612E+06                                                                
 -------------------------------------------------------------------------------
 
 SOLVING FOR HEAD 
 INITIAL HNEW IS AN EXACT SOLUTION.

 NO OUTPUT CONTROL FOR STRESS PERIOD   25   TIME STEP 4082

 -------------------------------------------------------------------------------
                             SWR1 OUTPUT PRINT TIMES
                        STRESS PERIOD   25   TIME STEP  4082
 --------------- --------------- --------------- --------------- ---------------
     0.57624E+06                                                                
 -------------------------------------------------------------------------------
 
 SOLVING FOR HEAD 
 INITIAL HNEW IS AN EXACT SOLUTION.

 NO OUTPUT CONTROL FOR STRESS PERIOD   25   TIME STEP 4083

 -------------------------------------------------------------------------------
                             SWR1 OUTPUT PRINT TIMES
                        STRESS PERIOD   25   TIME STEP  4083
 --------------- --------------- --------------- --------------- ---------------
     0.57636E+06                                                                
 -------------------------------------------------------------------------------
 
 SOLVING FOR HEAD 
 INITIAL HNEW IS AN EXACT SOLUTION.

 NO OUTPUT CONTROL FOR STRESS PERIOD   25   TIME STEP 4084

 -------------------------------------------------------------------------------
                             SWR1 OUTPUT PRINT TIMES
                        STRESS PERIOD   25   TIME STEP  4084
 --------------- --------------- --------------- --------------- ---------------
     0.57648E+06                                                                
 -------------------------------------------------------------------------------
 
 SOLVING FOR HEAD 
 INITIAL HNEW IS AN EXACT SOLUTION.

 NO OUTPUT CONTROL FOR STRESS PERIOD   25   TIME STEP 4085

 -------------------------------------------------------------------------------
                             SWR1 OUTPUT PRINT TIMES
                        STRESS PERIOD   25   TIME STEP  4085
 --------------- --------------- --------------- --------------- ---------------
     0.57660E+06                                                                
 -------------------------------------------------------------------------------
 
 SOLVING FOR HEAD 
 INITIAL HNEW IS AN EXACT SOLUTION.

 NO OUTPUT CONTROL FOR STRESS PERIOD   25   TIME STEP 4086

 -------------------------------------------------------------------------------
                             SWR1 OUTPUT PRINT TIMES
                        STRESS PERIOD   25   TIME STEP  4086
 --------------- --------------- --------------- --------------- ---------------
     0.57672E+06                                                                
 -------------------------------------------------------------------------------
 
 SOLVING FOR HEAD 
 INITIAL HNEW IS AN EXACT SOLUTION.

 NO OUTPUT CONTROL FOR STRESS PERIOD   25   TIME STEP 4087

 -------------------------------------------------------------------------------
                             SWR1 OUTPUT PRINT TIMES
                        STRESS PERIOD   25   TIME STEP  4087
 --------------- --------------- --------------- --------------- ---------------
     0.57684E+06                                                                
 -------------------------------------------------------------------------------
 
 SOLVING FOR HEAD 
 INITIAL HNEW IS AN EXACT SOLUTION.

 NO OUTPUT CONTROL FOR STRESS PERIOD   25   TIME STEP 4088

 -------------------------------------------------------------------------------
                             SWR1 OUTPUT PRINT TIMES
                        STRESS PERIOD   25   TIME STEP  4088
 --------------- --------------- --------------- --------------- ---------------
     0.57696E+06                                                                
 -------------------------------------------------------------------------------
 
 SOLVING FOR HEAD 
 INITIAL HNEW IS AN EXACT SOLUTION.

 NO OUTPUT CONTROL FOR STRESS PERIOD   25   TIME STEP 4089

 -------------------------------------------------------------------------------
                             SWR1 OUTPUT PRINT TIMES
                        STRESS PERIOD   25   TIME STEP  4089
 --------------- --------------- --------------- --------------- ---------------
     0.57708E+06                                                                
 -------------------------------------------------------------------------------
 
 SOLVING FOR HEAD 
 INITIAL HNEW IS AN EXACT SOLUTION.

 NO OUTPUT CONTROL FOR STRESS PERIOD   25   TIME STEP 4090

 -------------------------------------------------------------------------------
                             SWR1 OUTPUT PRINT TIMES
                        STRESS PERIOD   25   TIME STEP  4090
 --------------- --------------- --------------- --------------- ---------------
     0.57720E+06                                                                
 -------------------------------------------------------------------------------
 
 SOLVING FOR HEAD 
 INITIAL HNEW IS AN EXACT SOLUTION.

 NO OUTPUT CONTROL FOR STRESS PERIOD   25   TIME STEP 4091

 -------------------------------------------------------------------------------
                             SWR1 OUTPUT PRINT TIMES
                        STRESS PERIOD   25   TIME STEP  4091
 --------------- --------------- --------------- --------------- ---------------
     0.57732E+06                                                                
 -------------------------------------------------------------------------------
 
 SOLVING FOR HEAD 
 INITIAL HNEW IS AN EXACT SOLUTION.

 NO OUTPUT CONTROL FOR STRESS PERIOD   25   TIME STEP 4092

 -------------------------------------------------------------------------------
                             SWR1 OUTPUT PRINT TIMES
                        STRESS PERIOD   25   TIME STEP  4092
 --------------- --------------- --------------- --------------- ---------------
     0.57744E+06                                                                
 -------------------------------------------------------------------------------
 
 SOLVING FOR HEAD 
 INITIAL HNEW IS AN EXACT SOLUTION.

 NO OUTPUT CONTROL FOR STRESS PERIOD   25   TIME STEP 4093

 -------------------------------------------------------------------------------
                             SWR1 OUTPUT PRINT TIMES
                        STRESS PERIOD   25   TIME STEP  4093
 --------------- --------------- --------------- --------------- ---------------
     0.57756E+06                                                                
 -------------------------------------------------------------------------------
 
 SOLVING FOR HEAD 
 INITIAL HNEW IS AN EXACT SOLUTION.

 NO OUTPUT CONTROL FOR STRESS PERIOD   25   TIME STEP 4094

 -------------------------------------------------------------------------------
                             SWR1 OUTPUT PRINT TIMES
                        STRESS PERIOD   25   TIME STEP  4094
 --------------- --------------- --------------- --------------- ---------------
     0.57768E+06                                                                
 -------------------------------------------------------------------------------
 
 SOLVING FOR HEAD 
 INITIAL HNEW IS AN EXACT SOLUTION.

 NO OUTPUT CONTROL FOR STRESS PERIOD   25   TIME STEP 4095

 -------------------------------------------------------------------------------
                             SWR1 OUTPUT PRINT TIMES
                        STRESS PERIOD   25   TIME STEP  4095
 --------------- --------------- --------------- --------------- ---------------
     0.57780E+06                                                                
 -------------------------------------------------------------------------------
 
 SOLVING FOR HEAD 
 INITIAL HNEW IS AN EXACT SOLUTION.

 NO OUTPUT CONTROL FOR STRESS PERIOD   25   TIME STEP 4096

 -------------------------------------------------------------------------------
                             SWR1 OUTPUT PRINT TIMES
                        STRESS PERIOD   25   TIME STEP  4096
 --------------- --------------- --------------- --------------- ---------------
     0.57792E+06                                                                
 -------------------------------------------------------------------------------
 
 SOLVING FOR HEAD 
 INITIAL HNEW IS AN EXACT SOLUTION.

 NO OUTPUT CONTROL FOR STRESS PERIOD   25   TIME STEP 4097

 -------------------------------------------------------------------------------
                             SWR1 OUTPUT PRINT TIMES
                        STRESS PERIOD   25   TIME STEP  4097
 --------------- --------------- --------------- --------------- ---------------
     0.57804E+06                                                                
 -------------------------------------------------------------------------------
 
 SOLVING FOR HEAD 
 INITIAL HNEW IS AN EXACT SOLUTION.

 NO OUTPUT CONTROL FOR STRESS PERIOD   25   TIME STEP 4098

 -------------------------------------------------------------------------------
                             SWR1 OUTPUT PRINT TIMES
                        STRESS PERIOD   25   TIME STEP  4098
 --------------- --------------- --------------- --------------- ---------------
     0.57816E+06                                                                
 -------------------------------------------------------------------------------
 
 SOLVING FOR HEAD 
 INITIAL HNEW IS AN EXACT SOLUTION.

 NO OUTPUT CONTROL FOR STRESS PERIOD   25   TIME STEP 4099

 -------------------------------------------------------------------------------
                             SWR1 OUTPUT PRINT TIMES
                        STRESS PERIOD   25   TIME STEP  4099
 --------------- --------------- --------------- --------------- ---------------
     0.57828E+06                                                                
 -------------------------------------------------------------------------------
 
 SOLVING FOR HEAD 
 INITIAL HNEW IS AN EXACT SOLUTION.

 NO OUTPUT CONTROL FOR STRESS PERIOD   25   TIME STEP 4100

 -------------------------------------------------------------------------------
                             SWR1 OUTPUT PRINT TIMES
                        STRESS PERIOD   25   TIME STEP  4100
 --------------- --------------- --------------- --------------- ---------------
     0.57840E+06                                                                
 -------------------------------------------------------------------------------
 
 SOLVING FOR HEAD 
 INITIAL HNEW IS AN EXACT SOLUTION.

 NO OUTPUT CONTROL FOR STRESS PERIOD   25   TIME STEP 4101

 -------------------------------------------------------------------------------
                             SWR1 OUTPUT PRINT TIMES
                        STRESS PERIOD   25   TIME STEP  4101
 --------------- --------------- --------------- --------------- ---------------
     0.57852E+06                                                                
 -------------------------------------------------------------------------------
 
 SOLVING FOR HEAD 
 INITIAL HNEW IS AN EXACT SOLUTION.

 NO OUTPUT CONTROL FOR STRESS PERIOD   25   TIME STEP 4102

 -------------------------------------------------------------------------------
                             SWR1 OUTPUT PRINT TIMES
                        STRESS PERIOD   25   TIME STEP  4102
 --------------- --------------- --------------- --------------- ---------------
     0.57864E+06                                                                
 -------------------------------------------------------------------------------
 
 SOLVING FOR HEAD 
 INITIAL HNEW IS AN EXACT SOLUTION.

 NO OUTPUT CONTROL FOR STRESS PERIOD   25   TIME STEP 4103

 -------------------------------------------------------------------------------
                             SWR1 OUTPUT PRINT TIMES
                        STRESS PERIOD   25   TIME STEP  4103
 --------------- --------------- --------------- --------------- ---------------
     0.57876E+06                                                                
 -------------------------------------------------------------------------------
 
 SOLVING FOR HEAD 
 INITIAL HNEW IS AN EXACT SOLUTION.

 NO OUTPUT CONTROL FOR STRESS PERIOD   25   TIME STEP 4104

 -------------------------------------------------------------------------------
                             SWR1 OUTPUT PRINT TIMES
                        STRESS PERIOD   25   TIME STEP  4104
 --------------- --------------- --------------- --------------- ---------------
     0.57888E+06                                                                
 -------------------------------------------------------------------------------
 
 SOLVING FOR HEAD 
 INITIAL HNEW IS AN EXACT SOLUTION.

 NO OUTPUT CONTROL FOR STRESS PERIOD   25   TIME STEP 4105

 -------------------------------------------------------------------------------
                             SWR1 OUTPUT PRINT TIMES
                        STRESS PERIOD   25   TIME STEP  4105
 --------------- --------------- --------------- --------------- ---------------
     0.57900E+06                                                                
 -------------------------------------------------------------------------------
 
 SOLVING FOR HEAD 
 INITIAL HNEW IS AN EXACT SOLUTION.

 NO OUTPUT CONTROL FOR STRESS PERIOD   25   TIME STEP 4106

 -------------------------------------------------------------------------------
                             SWR1 OUTPUT PRINT TIMES
                        STRESS PERIOD   25   TIME STEP  4106
 --------------- --------------- --------------- --------------- ---------------
     0.57912E+06                                                                
 -------------------------------------------------------------------------------
 
 SOLVING FOR HEAD 
 INITIAL HNEW IS AN EXACT SOLUTION.

 NO OUTPUT CONTROL FOR STRESS PERIOD   25   TIME STEP 4107

 -------------------------------------------------------------------------------
                             SWR1 OUTPUT PRINT TIMES
                        STRESS PERIOD   25   TIME STEP  4107
 --------------- --------------- --------------- --------------- ---------------
     0.57924E+06                                                                
 -------------------------------------------------------------------------------
 
 SOLVING FOR HEAD 
 INITIAL HNEW IS AN EXACT SOLUTION.

 NO OUTPUT CONTROL FOR STRESS PERIOD   25   TIME STEP 4108

 -------------------------------------------------------------------------------
                             SWR1 OUTPUT PRINT TIMES
                        STRESS PERIOD   25   TIME STEP  4108
 --------------- --------------- --------------- --------------- ---------------
     0.57936E+06                                                                
 -------------------------------------------------------------------------------
 
 SOLVING FOR HEAD 
 INITIAL HNEW IS AN EXACT SOLUTION.

 NO OUTPUT CONTROL FOR STRESS PERIOD   25   TIME STEP 4109

 -------------------------------------------------------------------------------
                             SWR1 OUTPUT PRINT TIMES
                        STRESS PERIOD   25   TIME STEP  4109
 --------------- --------------- --------------- --------------- ---------------
     0.57948E+06                                                                
 -------------------------------------------------------------------------------
 
 SOLVING FOR HEAD 
 INITIAL HNEW IS AN EXACT SOLUTION.

 NO OUTPUT CONTROL FOR STRESS PERIOD   25   TIME STEP 4110

 -------------------------------------------------------------------------------
                             SWR1 OUTPUT PRINT TIMES
                        STRESS PERIOD   25   TIME STEP  4110
 --------------- --------------- --------------- --------------- ---------------
     0.57960E+06                                                                
 -------------------------------------------------------------------------------
 
 SOLVING FOR HEAD 
 INITIAL HNEW IS AN EXACT SOLUTION.

 NO OUTPUT CONTROL FOR STRESS PERIOD   25   TIME STEP 4111

 -------------------------------------------------------------------------------
                             SWR1 OUTPUT PRINT TIMES
                        STRESS PERIOD   25   TIME STEP  4111
 --------------- --------------- --------------- --------------- ---------------
     0.57972E+06                                                                
 -------------------------------------------------------------------------------
 
 SOLVING FOR HEAD 
 INITIAL HNEW IS AN EXACT SOLUTION.

 NO OUTPUT CONTROL FOR STRESS PERIOD   25   TIME STEP 4112

 -------------------------------------------------------------------------------
                             SWR1 OUTPUT PRINT TIMES
                        STRESS PERIOD   25   TIME STEP  4112
 --------------- --------------- --------------- --------------- ---------------
     0.57984E+06                                                                
 -------------------------------------------------------------------------------
 
 SOLVING FOR HEAD 
 INITIAL HNEW IS AN EXACT SOLUTION.

 NO OUTPUT CONTROL FOR STRESS PERIOD   25   TIME STEP 4113

 -------------------------------------------------------------------------------
                             SWR1 OUTPUT PRINT TIMES
                        STRESS PERIOD   25   TIME STEP  4113
 --------------- --------------- --------------- --------------- ---------------
     0.57996E+06                                                                
 -------------------------------------------------------------------------------
 
 SOLVING FOR HEAD 
 INITIAL HNEW IS AN EXACT SOLUTION.

 NO OUTPUT CONTROL FOR STRESS PERIOD   25   TIME STEP 4114

 -------------------------------------------------------------------------------
                             SWR1 OUTPUT PRINT TIMES
                        STRESS PERIOD   25   TIME STEP  4114
 --------------- --------------- --------------- --------------- ---------------
     0.58008E+06                                                                
 -------------------------------------------------------------------------------
 
 SOLVING FOR HEAD 
 INITIAL HNEW IS AN EXACT SOLUTION.

 NO OUTPUT CONTROL FOR STRESS PERIOD   25   TIME STEP 4115

 -------------------------------------------------------------------------------
                             SWR1 OUTPUT PRINT TIMES
                        STRESS PERIOD   25   TIME STEP  4115
 --------------- --------------- --------------- --------------- ---------------
     0.58020E+06                                                                
 -------------------------------------------------------------------------------
 
 SOLVING FOR HEAD 
 INITIAL HNEW IS AN EXACT SOLUTION.

 NO OUTPUT CONTROL FOR STRESS PERIOD   25   TIME STEP 4116

 -------------------------------------------------------------------------------
                             SWR1 OUTPUT PRINT TIMES
                        STRESS PERIOD   25   TIME STEP  4116
 --------------- --------------- --------------- --------------- ---------------
     0.58032E+06                                                                
 -------------------------------------------------------------------------------
 
 SOLVING FOR HEAD 
 INITIAL HNEW IS AN EXACT SOLUTION.

 NO OUTPUT CONTROL FOR STRESS PERIOD   25   TIME STEP 4117

 -------------------------------------------------------------------------------
                             SWR1 OUTPUT PRINT TIMES
                        STRESS PERIOD   25   TIME STEP  4117
 --------------- --------------- --------------- --------------- ---------------
     0.58044E+06                                                                
 -------------------------------------------------------------------------------
 
 SOLVING FOR HEAD 
 INITIAL HNEW IS AN EXACT SOLUTION.

 NO OUTPUT CONTROL FOR STRESS PERIOD   25   TIME STEP 4118

 -------------------------------------------------------------------------------
                             SWR1 OUTPUT PRINT TIMES
                        STRESS PERIOD   25   TIME STEP  4118
 --------------- --------------- --------------- --------------- ---------------
     0.58056E+06                                                                
 -------------------------------------------------------------------------------
 
 SOLVING FOR HEAD 
 INITIAL HNEW IS AN EXACT SOLUTION.

 NO OUTPUT CONTROL FOR STRESS PERIOD   25   TIME STEP 4119

 -------------------------------------------------------------------------------
                             SWR1 OUTPUT PRINT TIMES
                        STRESS PERIOD   25   TIME STEP  4119
 --------------- --------------- --------------- --------------- ---------------
     0.58068E+06                                                                
 -------------------------------------------------------------------------------
 
 SOLVING FOR HEAD 
 INITIAL HNEW IS AN EXACT SOLUTION.

 NO OUTPUT CONTROL FOR STRESS PERIOD   25   TIME STEP 4120

 -------------------------------------------------------------------------------
                             SWR1 OUTPUT PRINT TIMES
                        STRESS PERIOD   25   TIME STEP  4120
 --------------- --------------- --------------- --------------- ---------------
     0.58080E+06                                                                
 -------------------------------------------------------------------------------
 
 SOLVING FOR HEAD 
 INITIAL HNEW IS AN EXACT SOLUTION.

 NO OUTPUT CONTROL FOR STRESS PERIOD   25   TIME STEP 4121

 -------------------------------------------------------------------------------
                             SWR1 OUTPUT PRINT TIMES
                        STRESS PERIOD   25   TIME STEP  4121
 --------------- --------------- --------------- --------------- ---------------
     0.58092E+06                                                                
 -------------------------------------------------------------------------------
 
 SOLVING FOR HEAD 
 INITIAL HNEW IS AN EXACT SOLUTION.

 NO OUTPUT CONTROL FOR STRESS PERIOD   25   TIME STEP 4122

 -------------------------------------------------------------------------------
                             SWR1 OUTPUT PRINT TIMES
                        STRESS PERIOD   25   TIME STEP  4122
 --------------- --------------- --------------- --------------- ---------------
     0.58104E+06                                                                
 -------------------------------------------------------------------------------
 
 SOLVING FOR HEAD 
 INITIAL HNEW IS AN EXACT SOLUTION.

 NO OUTPUT CONTROL FOR STRESS PERIOD   25   TIME STEP 4123

 -------------------------------------------------------------------------------
                             SWR1 OUTPUT PRINT TIMES
                        STRESS PERIOD   25   TIME STEP  4123
 --------------- --------------- --------------- --------------- ---------------
     0.58116E+06                                                                
 -------------------------------------------------------------------------------
 
 SOLVING FOR HEAD 
 INITIAL HNEW IS AN EXACT SOLUTION.

 NO OUTPUT CONTROL FOR STRESS PERIOD   25   TIME STEP 4124

 -------------------------------------------------------------------------------
                             SWR1 OUTPUT PRINT TIMES
                        STRESS PERIOD   25   TIME STEP  4124
 --------------- --------------- --------------- --------------- ---------------
     0.58128E+06                                                                
 -------------------------------------------------------------------------------
 
 SOLVING FOR HEAD 
 INITIAL HNEW IS AN EXACT SOLUTION.

 NO OUTPUT CONTROL FOR STRESS PERIOD   25   TIME STEP 4125

 -------------------------------------------------------------------------------
                             SWR1 OUTPUT PRINT TIMES
                        STRESS PERIOD   25   TIME STEP  4125
 --------------- --------------- --------------- --------------- ---------------
     0.58140E+06                                                                
 -------------------------------------------------------------------------------
 
 SOLVING FOR HEAD 
 INITIAL HNEW IS AN EXACT SOLUTION.

 NO OUTPUT CONTROL FOR STRESS PERIOD   25   TIME STEP 4126

 -------------------------------------------------------------------------------
                             SWR1 OUTPUT PRINT TIMES
                        STRESS PERIOD   25   TIME STEP  4126
 --------------- --------------- --------------- --------------- ---------------
     0.58152E+06                                                                
 -------------------------------------------------------------------------------
 
 SOLVING FOR HEAD 
 INITIAL HNEW IS AN EXACT SOLUTION.

 NO OUTPUT CONTROL FOR STRESS PERIOD   25   TIME STEP 4127

 -------------------------------------------------------------------------------
                             SWR1 OUTPUT PRINT TIMES
                        STRESS PERIOD   25   TIME STEP  4127
 --------------- --------------- --------------- --------------- ---------------
     0.58164E+06                                                                
 -------------------------------------------------------------------------------
 
 SOLVING FOR HEAD 
 INITIAL HNEW IS AN EXACT SOLUTION.

 NO OUTPUT CONTROL FOR STRESS PERIOD   25   TIME STEP 4128

 -------------------------------------------------------------------------------
                             SWR1 OUTPUT PRINT TIMES
                        STRESS PERIOD   25   TIME STEP  4128
 --------------- --------------- --------------- --------------- ---------------
     0.58176E+06                                                                
 -------------------------------------------------------------------------------
 
 SOLVING FOR HEAD 
 INITIAL HNEW IS AN EXACT SOLUTION.

 NO OUTPUT CONTROL FOR STRESS PERIOD   25   TIME STEP 4129

 -------------------------------------------------------------------------------
                             SWR1 OUTPUT PRINT TIMES
                        STRESS PERIOD   25   TIME STEP  4129
 --------------- --------------- --------------- --------------- ---------------
     0.58188E+06                                                                
 -------------------------------------------------------------------------------
 
 SOLVING FOR HEAD 
 INITIAL HNEW IS AN EXACT SOLUTION.

 NO OUTPUT CONTROL FOR STRESS PERIOD   25   TIME STEP 4130

 -------------------------------------------------------------------------------
                             SWR1 OUTPUT PRINT TIMES
                        STRESS PERIOD   25   TIME STEP  4130
 --------------- --------------- --------------- --------------- ---------------
     0.58200E+06                                                                
 -------------------------------------------------------------------------------
 
 SOLVING FOR HEAD 
 INITIAL HNEW IS AN EXACT SOLUTION.

 NO OUTPUT CONTROL FOR STRESS PERIOD   25   TIME STEP 4131

 -------------------------------------------------------------------------------
                             SWR1 OUTPUT PRINT TIMES
                        STRESS PERIOD   25   TIME STEP  4131
 --------------- --------------- --------------- --------------- ---------------
     0.58212E+06                                                                
 -------------------------------------------------------------------------------
 
 SOLVING FOR HEAD 
 INITIAL HNEW IS AN EXACT SOLUTION.

 NO OUTPUT CONTROL FOR STRESS PERIOD   25   TIME STEP 4132

 -------------------------------------------------------------------------------
                             SWR1 OUTPUT PRINT TIMES
                        STRESS PERIOD   25   TIME STEP  4132
 --------------- --------------- --------------- --------------- ---------------
     0.58224E+06                                                                
 -------------------------------------------------------------------------------
 
 SOLVING FOR HEAD 
 INITIAL HNEW IS AN EXACT SOLUTION.

 NO OUTPUT CONTROL FOR STRESS PERIOD   25   TIME STEP 4133

 -------------------------------------------------------------------------------
                             SWR1 OUTPUT PRINT TIMES
                        STRESS PERIOD   25   TIME STEP  4133
 --------------- --------------- --------------- --------------- ---------------
     0.58236E+06                                                                
 -------------------------------------------------------------------------------
 
 SOLVING FOR HEAD 
 INITIAL HNEW IS AN EXACT SOLUTION.

 NO OUTPUT CONTROL FOR STRESS PERIOD   25   TIME STEP 4134

 -------------------------------------------------------------------------------
                             SWR1 OUTPUT PRINT TIMES
                        STRESS PERIOD   25   TIME STEP  4134
 --------------- --------------- --------------- --------------- ---------------
     0.58248E+06                                                                
 -------------------------------------------------------------------------------
 
 SOLVING FOR HEAD 
 INITIAL HNEW IS AN EXACT SOLUTION.

 NO OUTPUT CONTROL FOR STRESS PERIOD   25   TIME STEP 4135

 -------------------------------------------------------------------------------
                             SWR1 OUTPUT PRINT TIMES
                        STRESS PERIOD   25   TIME STEP  4135
 --------------- --------------- --------------- --------------- ---------------
     0.58260E+06                                                                
 -------------------------------------------------------------------------------
 
 SOLVING FOR HEAD 
 INITIAL HNEW IS AN EXACT SOLUTION.

 NO OUTPUT CONTROL FOR STRESS PERIOD   25   TIME STEP 4136

 -------------------------------------------------------------------------------
                             SWR1 OUTPUT PRINT TIMES
                        STRESS PERIOD   25   TIME STEP  4136
 --------------- --------------- --------------- --------------- ---------------
     0.58272E+06                                                                
 -------------------------------------------------------------------------------
 
 SOLVING FOR HEAD 
 INITIAL HNEW IS AN EXACT SOLUTION.

 NO OUTPUT CONTROL FOR STRESS PERIOD   25   TIME STEP 4137

 -------------------------------------------------------------------------------
                             SWR1 OUTPUT PRINT TIMES
                        STRESS PERIOD   25   TIME STEP  4137
 --------------- --------------- --------------- --------------- ---------------
     0.58284E+06                                                                
 -------------------------------------------------------------------------------
 
 SOLVING FOR HEAD 
 INITIAL HNEW IS AN EXACT SOLUTION.

 NO OUTPUT CONTROL FOR STRESS PERIOD   25   TIME STEP 4138

 -------------------------------------------------------------------------------
                             SWR1 OUTPUT PRINT TIMES
                        STRESS PERIOD   25   TIME STEP  4138
 --------------- --------------- --------------- --------------- ---------------
     0.58296E+06                                                                
 -------------------------------------------------------------------------------
 
 SOLVING FOR HEAD 
 INITIAL HNEW IS AN EXACT SOLUTION.

 NO OUTPUT CONTROL FOR STRESS PERIOD   25   TIME STEP 4139

 -------------------------------------------------------------------------------
                             SWR1 OUTPUT PRINT TIMES
                        STRESS PERIOD   25   TIME STEP  4139
 --------------- --------------- --------------- --------------- ---------------
     0.58308E+06                                                                
 -------------------------------------------------------------------------------
 
 SOLVING FOR HEAD 
 INITIAL HNEW IS AN EXACT SOLUTION.

 NO OUTPUT CONTROL FOR STRESS PERIOD   25   TIME STEP 4140

 -------------------------------------------------------------------------------
                             SWR1 OUTPUT PRINT TIMES
                        STRESS PERIOD   25   TIME STEP  4140
 --------------- --------------- --------------- --------------- ---------------
     0.58320E+06                                                                
 -------------------------------------------------------------------------------
 
 SOLVING FOR HEAD 
 INITIAL HNEW IS AN EXACT SOLUTION.

 NO OUTPUT CONTROL FOR STRESS PERIOD   25   TIME STEP 4141

 -------------------------------------------------------------------------------
                             SWR1 OUTPUT PRINT TIMES
                        STRESS PERIOD   25   TIME STEP  4141
 --------------- --------------- --------------- --------------- ---------------
     0.58332E+06                                                                
 -------------------------------------------------------------------------------
 
 SOLVING FOR HEAD 
 INITIAL HNEW IS AN EXACT SOLUTION.

 NO OUTPUT CONTROL FOR STRESS PERIOD   25   TIME STEP 4142

 -------------------------------------------------------------------------------
                             SWR1 OUTPUT PRINT TIMES
                        STRESS PERIOD   25   TIME STEP  4142
 --------------- --------------- --------------- --------------- ---------------
     0.58344E+06                                                                
 -------------------------------------------------------------------------------
 
 SOLVING FOR HEAD 
 INITIAL HNEW IS AN EXACT SOLUTION.

 NO OUTPUT CONTROL FOR STRESS PERIOD   25   TIME STEP 4143

 -------------------------------------------------------------------------------
                             SWR1 OUTPUT PRINT TIMES
                        STRESS PERIOD   25   TIME STEP  4143
 --------------- --------------- --------------- --------------- ---------------
     0.58356E+06                                                                
 -------------------------------------------------------------------------------
 
 SOLVING FOR HEAD 
 INITIAL HNEW IS AN EXACT SOLUTION.

 NO OUTPUT CONTROL FOR STRESS PERIOD   25   TIME STEP 4144

 -------------------------------------------------------------------------------
                             SWR1 OUTPUT PRINT TIMES
                        STRESS PERIOD   25   TIME STEP  4144
 --------------- --------------- --------------- --------------- ---------------
     0.58368E+06                                                                
 -------------------------------------------------------------------------------
 
 SOLVING FOR HEAD 
 INITIAL HNEW IS AN EXACT SOLUTION.

 NO OUTPUT CONTROL FOR STRESS PERIOD   25   TIME STEP 4145

 -------------------------------------------------------------------------------
                             SWR1 OUTPUT PRINT TIMES
                        STRESS PERIOD   25   TIME STEP  4145
 --------------- --------------- --------------- --------------- ---------------
     0.58380E+06                                                                
 -------------------------------------------------------------------------------
 
 SOLVING FOR HEAD 
 INITIAL HNEW IS AN EXACT SOLUTION.

 NO OUTPUT CONTROL FOR STRESS PERIOD   25   TIME STEP 4146

 -------------------------------------------------------------------------------
                             SWR1 OUTPUT PRINT TIMES
                        STRESS PERIOD   25   TIME STEP  4146
 --------------- --------------- --------------- --------------- ---------------
     0.58392E+06                                                                
 -------------------------------------------------------------------------------
 
 SOLVING FOR HEAD 
 INITIAL HNEW IS AN EXACT SOLUTION.

 NO OUTPUT CONTROL FOR STRESS PERIOD   25   TIME STEP 4147

 -------------------------------------------------------------------------------
                             SWR1 OUTPUT PRINT TIMES
                        STRESS PERIOD   25   TIME STEP  4147
 --------------- --------------- --------------- --------------- ---------------
     0.58404E+06                                                                
 -------------------------------------------------------------------------------
 
 SOLVING FOR HEAD 
 INITIAL HNEW IS AN EXACT SOLUTION.

 NO OUTPUT CONTROL FOR STRESS PERIOD   25   TIME STEP 4148

 -------------------------------------------------------------------------------
                             SWR1 OUTPUT PRINT TIMES
                        STRESS PERIOD   25   TIME STEP  4148
 --------------- --------------- --------------- --------------- ---------------
     0.58416E+06                                                                
 -------------------------------------------------------------------------------
 
 SOLVING FOR HEAD 
 INITIAL HNEW IS AN EXACT SOLUTION.

 NO OUTPUT CONTROL FOR STRESS PERIOD   25   TIME STEP 4149

 -------------------------------------------------------------------------------
                             SWR1 OUTPUT PRINT TIMES
                        STRESS PERIOD   25   TIME STEP  4149
 --------------- --------------- --------------- --------------- ---------------
     0.58428E+06                                                                
 -------------------------------------------------------------------------------
 
 SOLVING FOR HEAD 
 INITIAL HNEW IS AN EXACT SOLUTION.

 NO OUTPUT CONTROL FOR STRESS PERIOD   25   TIME STEP 4150

 -------------------------------------------------------------------------------
                             SWR1 OUTPUT PRINT TIMES
                        STRESS PERIOD   25   TIME STEP  4150
 --------------- --------------- --------------- --------------- ---------------
     0.58440E+06                                                                
 -------------------------------------------------------------------------------
 
 SOLVING FOR HEAD 
 INITIAL HNEW IS AN EXACT SOLUTION.

 NO OUTPUT CONTROL FOR STRESS PERIOD   25   TIME STEP 4151

 -------------------------------------------------------------------------------
                             SWR1 OUTPUT PRINT TIMES
                        STRESS PERIOD   25   TIME STEP  4151
 --------------- --------------- --------------- --------------- ---------------
     0.58452E+06                                                                
 -------------------------------------------------------------------------------
 
 SOLVING FOR HEAD 
 INITIAL HNEW IS AN EXACT SOLUTION.

 NO OUTPUT CONTROL FOR STRESS PERIOD   25   TIME STEP 4152

 -------------------------------------------------------------------------------
                             SWR1 OUTPUT PRINT TIMES
                        STRESS PERIOD   25   TIME STEP  4152
 --------------- --------------- --------------- --------------- ---------------
     0.58464E+06                                                                
 -------------------------------------------------------------------------------
 
 SOLVING FOR HEAD 
 INITIAL HNEW IS AN EXACT SOLUTION.

 NO OUTPUT CONTROL FOR STRESS PERIOD   25   TIME STEP 4153

 -------------------------------------------------------------------------------
                             SWR1 OUTPUT PRINT TIMES
                        STRESS PERIOD   25   TIME STEP  4153
 --------------- --------------- --------------- --------------- ---------------
     0.58476E+06                                                                
 -------------------------------------------------------------------------------
 
 SOLVING FOR HEAD 
 INITIAL HNEW IS AN EXACT SOLUTION.

 NO OUTPUT CONTROL FOR STRESS PERIOD   25   TIME STEP 4154

 -------------------------------------------------------------------------------
                             SWR1 OUTPUT PRINT TIMES
                        STRESS PERIOD   25   TIME STEP  4154
 --------------- --------------- --------------- --------------- ---------------
     0.58488E+06                                                                
 -------------------------------------------------------------------------------
 
 SOLVING FOR HEAD 
 INITIAL HNEW IS AN EXACT SOLUTION.

 NO OUTPUT CONTROL FOR STRESS PERIOD   25   TIME STEP 4155

 -------------------------------------------------------------------------------
                             SWR1 OUTPUT PRINT TIMES
                        STRESS PERIOD   25   TIME STEP  4155
 --------------- --------------- --------------- --------------- ---------------
     0.58500E+06                                                                
 -------------------------------------------------------------------------------
 
 SOLVING FOR HEAD 
 INITIAL HNEW IS AN EXACT SOLUTION.

 NO OUTPUT CONTROL FOR STRESS PERIOD   25   TIME STEP 4156

 -------------------------------------------------------------------------------
                             SWR1 OUTPUT PRINT TIMES
                        STRESS PERIOD   25   TIME STEP  4156
 --------------- --------------- --------------- --------------- ---------------
     0.58512E+06                                                                
 -------------------------------------------------------------------------------
 
 SOLVING FOR HEAD 
 INITIAL HNEW IS AN EXACT SOLUTION.

 NO OUTPUT CONTROL FOR STRESS PERIOD   25   TIME STEP 4157

 -------------------------------------------------------------------------------
                             SWR1 OUTPUT PRINT TIMES
                        STRESS PERIOD   25   TIME STEP  4157
 --------------- --------------- --------------- --------------- ---------------
     0.58524E+06                                                                
 -------------------------------------------------------------------------------
 
 SOLVING FOR HEAD 
 INITIAL HNEW IS AN EXACT SOLUTION.

 NO OUTPUT CONTROL FOR STRESS PERIOD   25   TIME STEP 4158

 -------------------------------------------------------------------------------
                             SWR1 OUTPUT PRINT TIMES
                        STRESS PERIOD   25   TIME STEP  4158
 --------------- --------------- --------------- --------------- ---------------
     0.58536E+06                                                                
 -------------------------------------------------------------------------------
 
 SOLVING FOR HEAD 
 INITIAL HNEW IS AN EXACT SOLUTION.

 NO OUTPUT CONTROL FOR STRESS PERIOD   25   TIME STEP 4159

 -------------------------------------------------------------------------------
                             SWR1 OUTPUT PRINT TIMES
                        STRESS PERIOD   25   TIME STEP  4159
 --------------- --------------- --------------- --------------- ---------------
     0.58548E+06                                                                
 -------------------------------------------------------------------------------
 
 SOLVING FOR HEAD 
 INITIAL HNEW IS AN EXACT SOLUTION.

 NO OUTPUT CONTROL FOR STRESS PERIOD   25   TIME STEP 4160

 -------------------------------------------------------------------------------
                             SWR1 OUTPUT PRINT TIMES
                        STRESS PERIOD   25   TIME STEP  4160
 --------------- --------------- --------------- --------------- ---------------
     0.58560E+06                                                                
 -------------------------------------------------------------------------------
 
 SOLVING FOR HEAD 
 INITIAL HNEW IS AN EXACT SOLUTION.

 NO OUTPUT CONTROL FOR STRESS PERIOD   25   TIME STEP 4161

 -------------------------------------------------------------------------------
                             SWR1 OUTPUT PRINT TIMES
                        STRESS PERIOD   25   TIME STEP  4161
 --------------- --------------- --------------- --------------- ---------------
     0.58572E+06                                                                
 -------------------------------------------------------------------------------
 
 SOLVING FOR HEAD 
 INITIAL HNEW IS AN EXACT SOLUTION.

 NO OUTPUT CONTROL FOR STRESS PERIOD   25   TIME STEP 4162

 -------------------------------------------------------------------------------
                             SWR1 OUTPUT PRINT TIMES
                        STRESS PERIOD   25   TIME STEP  4162
 --------------- --------------- --------------- --------------- ---------------
     0.58584E+06                                                                
 -------------------------------------------------------------------------------
 
 SOLVING FOR HEAD 
 INITIAL HNEW IS AN EXACT SOLUTION.

 NO OUTPUT CONTROL FOR STRESS PERIOD   25   TIME STEP 4163

 -------------------------------------------------------------------------------
                             SWR1 OUTPUT PRINT TIMES
                        STRESS PERIOD   25   TIME STEP  4163
 --------------- --------------- --------------- --------------- ---------------
     0.58596E+06                                                                
 -------------------------------------------------------------------------------
 
 SOLVING FOR HEAD 
 INITIAL HNEW IS AN EXACT SOLUTION.

 NO OUTPUT CONTROL FOR STRESS PERIOD   25   TIME STEP 4164

 -------------------------------------------------------------------------------
                             SWR1 OUTPUT PRINT TIMES
                        STRESS PERIOD   25   TIME STEP  4164
 --------------- --------------- --------------- --------------- ---------------
     0.58608E+06                                                                
 -------------------------------------------------------------------------------
 
 SOLVING FOR HEAD 
 INITIAL HNEW IS AN EXACT SOLUTION.

 NO OUTPUT CONTROL FOR STRESS PERIOD   25   TIME STEP 4165

 -------------------------------------------------------------------------------
                             SWR1 OUTPUT PRINT TIMES
                        STRESS PERIOD   25   TIME STEP  4165
 --------------- --------------- --------------- --------------- ---------------
     0.58620E+06                                                                
 -------------------------------------------------------------------------------
 
 SOLVING FOR HEAD 
 INITIAL HNEW IS AN EXACT SOLUTION.

 NO OUTPUT CONTROL FOR STRESS PERIOD   25   TIME STEP 4166

 -------------------------------------------------------------------------------
                             SWR1 OUTPUT PRINT TIMES
                        STRESS PERIOD   25   TIME STEP  4166
 --------------- --------------- --------------- --------------- ---------------
     0.58632E+06                                                                
 -------------------------------------------------------------------------------
 
 SOLVING FOR HEAD 
 INITIAL HNEW IS AN EXACT SOLUTION.

 NO OUTPUT CONTROL FOR STRESS PERIOD   25   TIME STEP 4167

 -------------------------------------------------------------------------------
                             SWR1 OUTPUT PRINT TIMES
                        STRESS PERIOD   25   TIME STEP  4167
 --------------- --------------- --------------- --------------- ---------------
     0.58644E+06                                                                
 -------------------------------------------------------------------------------
 
 SOLVING FOR HEAD 
 INITIAL HNEW IS AN EXACT SOLUTION.

 NO OUTPUT CONTROL FOR STRESS PERIOD   25   TIME STEP 4168

 -------------------------------------------------------------------------------
                             SWR1 OUTPUT PRINT TIMES
                        STRESS PERIOD   25   TIME STEP  4168
 --------------- --------------- --------------- --------------- ---------------
     0.58656E+06                                                                
 -------------------------------------------------------------------------------
 
 SOLVING FOR HEAD 
 INITIAL HNEW IS AN EXACT SOLUTION.

 NO OUTPUT CONTROL FOR STRESS PERIOD   25   TIME STEP 4169

 -------------------------------------------------------------------------------
                             SWR1 OUTPUT PRINT TIMES
                        STRESS PERIOD   25   TIME STEP  4169
 --------------- --------------- --------------- --------------- ---------------
     0.58668E+06                                                                
 -------------------------------------------------------------------------------
 
 SOLVING FOR HEAD 
 INITIAL HNEW IS AN EXACT SOLUTION.

 NO OUTPUT CONTROL FOR STRESS PERIOD   25   TIME STEP 4170

 -------------------------------------------------------------------------------
                             SWR1 OUTPUT PRINT TIMES
                        STRESS PERIOD   25   TIME STEP  4170
 --------------- --------------- --------------- --------------- ---------------
     0.58680E+06                                                                
 -------------------------------------------------------------------------------
 
 SOLVING FOR HEAD 
 INITIAL HNEW IS AN EXACT SOLUTION.

 NO OUTPUT CONTROL FOR STRESS PERIOD   25   TIME STEP 4171

 -------------------------------------------------------------------------------
                             SWR1 OUTPUT PRINT TIMES
                        STRESS PERIOD   25   TIME STEP  4171
 --------------- --------------- --------------- --------------- ---------------
     0.58692E+06                                                                
 -------------------------------------------------------------------------------
 
 SOLVING FOR HEAD 
 INITIAL HNEW IS AN EXACT SOLUTION.

 NO OUTPUT CONTROL FOR STRESS PERIOD   25   TIME STEP 4172

 -------------------------------------------------------------------------------
                             SWR1 OUTPUT PRINT TIMES
                        STRESS PERIOD   25   TIME STEP  4172
 --------------- --------------- --------------- --------------- ---------------
     0.58704E+06                                                                
 -------------------------------------------------------------------------------
 
 SOLVING FOR HEAD 
 INITIAL HNEW IS AN EXACT SOLUTION.

 NO OUTPUT CONTROL FOR STRESS PERIOD   25   TIME STEP 4173

 -------------------------------------------------------------------------------
                             SWR1 OUTPUT PRINT TIMES
                        STRESS PERIOD   25   TIME STEP  4173
 --------------- --------------- --------------- --------------- ---------------
     0.58716E+06                                                                
 -------------------------------------------------------------------------------
 
 SOLVING FOR HEAD 
 INITIAL HNEW IS AN EXACT SOLUTION.

 NO OUTPUT CONTROL FOR STRESS PERIOD   25   TIME STEP 4174

 -------------------------------------------------------------------------------
                             SWR1 OUTPUT PRINT TIMES
                        STRESS PERIOD   25   TIME STEP  4174
 --------------- --------------- --------------- --------------- ---------------
     0.58728E+06                                                                
 -------------------------------------------------------------------------------
 
 SOLVING FOR HEAD 
 INITIAL HNEW IS AN EXACT SOLUTION.

 NO OUTPUT CONTROL FOR STRESS PERIOD   25   TIME STEP 4175

 -------------------------------------------------------------------------------
                             SWR1 OUTPUT PRINT TIMES
                        STRESS PERIOD   25   TIME STEP  4175
 --------------- --------------- --------------- --------------- ---------------
     0.58740E+06                                                                
 -------------------------------------------------------------------------------
 
 SOLVING FOR HEAD 
 INITIAL HNEW IS AN EXACT SOLUTION.

 NO OUTPUT CONTROL FOR STRESS PERIOD   25   TIME STEP 4176

 -------------------------------------------------------------------------------
                             SWR1 OUTPUT PRINT TIMES
                        STRESS PERIOD   25   TIME STEP  4176
 --------------- --------------- --------------- --------------- ---------------
     0.58752E+06                                                                
 -------------------------------------------------------------------------------
 
 SOLVING FOR HEAD 
 INITIAL HNEW IS AN EXACT SOLUTION.

 NO OUTPUT CONTROL FOR STRESS PERIOD   25   TIME STEP 4177

 -------------------------------------------------------------------------------
                             SWR1 OUTPUT PRINT TIMES
                        STRESS PERIOD   25   TIME STEP  4177
 --------------- --------------- --------------- --------------- ---------------
     0.58764E+06                                                                
 -------------------------------------------------------------------------------
 
 SOLVING FOR HEAD 
 INITIAL HNEW IS AN EXACT SOLUTION.

 NO OUTPUT CONTROL FOR STRESS PERIOD   25   TIME STEP 4178

 -------------------------------------------------------------------------------
                             SWR1 OUTPUT PRINT TIMES
                        STRESS PERIOD   25   TIME STEP  4178
 --------------- --------------- --------------- --------------- ---------------
     0.58776E+06                                                                
 -------------------------------------------------------------------------------
 
 SOLVING FOR HEAD 
 INITIAL HNEW IS AN EXACT SOLUTION.

 NO OUTPUT CONTROL FOR STRESS PERIOD   25   TIME STEP 4179

 -------------------------------------------------------------------------------
                             SWR1 OUTPUT PRINT TIMES
                        STRESS PERIOD   25   TIME STEP  4179
 --------------- --------------- --------------- --------------- ---------------
     0.58788E+06                                                                
 -------------------------------------------------------------------------------
 
 SOLVING FOR HEAD 
 INITIAL HNEW IS AN EXACT SOLUTION.

 NO OUTPUT CONTROL FOR STRESS PERIOD   25   TIME STEP 4180

 -------------------------------------------------------------------------------
                             SWR1 OUTPUT PRINT TIMES
                        STRESS PERIOD   25   TIME STEP  4180
 --------------- --------------- --------------- --------------- ---------------
     0.58800E+06                                                                
 -------------------------------------------------------------------------------
 
 SOLVING FOR HEAD 
 INITIAL HNEW IS AN EXACT SOLUTION.

 NO OUTPUT CONTROL FOR STRESS PERIOD   25   TIME STEP 4181

 -------------------------------------------------------------------------------
                             SWR1 OUTPUT PRINT TIMES
                        STRESS PERIOD   25   TIME STEP  4181
 --------------- --------------- --------------- --------------- ---------------
     0.58812E+06                                                                
 -------------------------------------------------------------------------------
 
 SOLVING FOR HEAD 
 INITIAL HNEW IS AN EXACT SOLUTION.

 NO OUTPUT CONTROL FOR STRESS PERIOD   25   TIME STEP 4182

 -------------------------------------------------------------------------------
                             SWR1 OUTPUT PRINT TIMES
                        STRESS PERIOD   25   TIME STEP  4182
 --------------- --------------- --------------- --------------- ---------------
     0.58824E+06                                                                
 -------------------------------------------------------------------------------
 
 SOLVING FOR HEAD 
 INITIAL HNEW IS AN EXACT SOLUTION.

 NO OUTPUT CONTROL FOR STRESS PERIOD   25   TIME STEP 4183

 -------------------------------------------------------------------------------
                             SWR1 OUTPUT PRINT TIMES
                        STRESS PERIOD   25   TIME STEP  4183
 --------------- --------------- --------------- --------------- ---------------
     0.58836E+06                                                                
 -------------------------------------------------------------------------------
 
 SOLVING FOR HEAD 
 INITIAL HNEW IS AN EXACT SOLUTION.

 NO OUTPUT CONTROL FOR STRESS PERIOD   25   TIME STEP 4184

 -------------------------------------------------------------------------------
                             SWR1 OUTPUT PRINT TIMES
                        STRESS PERIOD   25   TIME STEP  4184
 --------------- --------------- --------------- --------------- ---------------
     0.58848E+06                                                                
 -------------------------------------------------------------------------------
 
 SOLVING FOR HEAD 
 INITIAL HNEW IS AN EXACT SOLUTION.

 NO OUTPUT CONTROL FOR STRESS PERIOD   25   TIME STEP 4185

 -------------------------------------------------------------------------------
                             SWR1 OUTPUT PRINT TIMES
                        STRESS PERIOD   25   TIME STEP  4185
 --------------- --------------- --------------- --------------- ---------------
     0.58860E+06                                                                
 -------------------------------------------------------------------------------
 
 SOLVING FOR HEAD 
 INITIAL HNEW IS AN EXACT SOLUTION.

 NO OUTPUT CONTROL FOR STRESS PERIOD   25   TIME STEP 4186

 -------------------------------------------------------------------------------
                             SWR1 OUTPUT PRINT TIMES
                        STRESS PERIOD   25   TIME STEP  4186
 --------------- --------------- --------------- --------------- ---------------
     0.58872E+06                                                                
 -------------------------------------------------------------------------------
 
 SOLVING FOR HEAD 
 INITIAL HNEW IS AN EXACT SOLUTION.

 NO OUTPUT CONTROL FOR STRESS PERIOD   25   TIME STEP 4187

 -------------------------------------------------------------------------------
                             SWR1 OUTPUT PRINT TIMES
                        STRESS PERIOD   25   TIME STEP  4187
 --------------- --------------- --------------- --------------- ---------------
     0.58884E+06                                                                
 -------------------------------------------------------------------------------
 
 SOLVING FOR HEAD 
 INITIAL HNEW IS AN EXACT SOLUTION.

 NO OUTPUT CONTROL FOR STRESS PERIOD   25   TIME STEP 4188

 -------------------------------------------------------------------------------
                             SWR1 OUTPUT PRINT TIMES
                        STRESS PERIOD   25   TIME STEP  4188
 --------------- --------------- --------------- --------------- ---------------
     0.58896E+06                                                                
 -------------------------------------------------------------------------------
 
 SOLVING FOR HEAD 
 INITIAL HNEW IS AN EXACT SOLUTION.

 NO OUTPUT CONTROL FOR STRESS PERIOD   25   TIME STEP 4189

 -------------------------------------------------------------------------------
                             SWR1 OUTPUT PRINT TIMES
                        STRESS PERIOD   25   TIME STEP  4189
 --------------- --------------- --------------- --------------- ---------------
     0.58908E+06                                                                
 -------------------------------------------------------------------------------
 
 SOLVING FOR HEAD 
 INITIAL HNEW IS AN EXACT SOLUTION.

 NO OUTPUT CONTROL FOR STRESS PERIOD   25   TIME STEP 4190

 -------------------------------------------------------------------------------
                             SWR1 OUTPUT PRINT TIMES
                        STRESS PERIOD   25   TIME STEP  4190
 --------------- --------------- --------------- --------------- ---------------
     0.58920E+06                                                                
 -------------------------------------------------------------------------------
 
 SOLVING FOR HEAD 
 INITIAL HNEW IS AN EXACT SOLUTION.

 NO OUTPUT CONTROL FOR STRESS PERIOD   25   TIME STEP 4191

 -------------------------------------------------------------------------------
                             SWR1 OUTPUT PRINT TIMES
                        STRESS PERIOD   25   TIME STEP  4191
 --------------- --------------- --------------- --------------- ---------------
     0.58932E+06                                                                
 -------------------------------------------------------------------------------
 
 SOLVING FOR HEAD 
 INITIAL HNEW IS AN EXACT SOLUTION.

 NO OUTPUT CONTROL FOR STRESS PERIOD   25   TIME STEP 4192

 -------------------------------------------------------------------------------
                             SWR1 OUTPUT PRINT TIMES
                        STRESS PERIOD   25   TIME STEP  4192
 --------------- --------------- --------------- --------------- ---------------
     0.58944E+06                                                                
 -------------------------------------------------------------------------------
 
 SOLVING FOR HEAD 
 INITIAL HNEW IS AN EXACT SOLUTION.

 NO OUTPUT CONTROL FOR STRESS PERIOD   25   TIME STEP 4193

 -------------------------------------------------------------------------------
                             SWR1 OUTPUT PRINT TIMES
                        STRESS PERIOD   25   TIME STEP  4193
 --------------- --------------- --------------- --------------- ---------------
     0.58956E+06                                                                
 -------------------------------------------------------------------------------
 
 SOLVING FOR HEAD 
 INITIAL HNEW IS AN EXACT SOLUTION.

 NO OUTPUT CONTROL FOR STRESS PERIOD   25   TIME STEP 4194

 -------------------------------------------------------------------------------
                             SWR1 OUTPUT PRINT TIMES
                        STRESS PERIOD   25   TIME STEP  4194
 --------------- --------------- --------------- --------------- ---------------
     0.58968E+06                                                                
 -------------------------------------------------------------------------------
 
 SOLVING FOR HEAD 
 INITIAL HNEW IS AN EXACT SOLUTION.

 NO OUTPUT CONTROL FOR STRESS PERIOD   25   TIME STEP 4195

 -------------------------------------------------------------------------------
                             SWR1 OUTPUT PRINT TIMES
                        STRESS PERIOD   25   TIME STEP  4195
 --------------- --------------- --------------- --------------- ---------------
     0.58980E+06                                                                
 -------------------------------------------------------------------------------
 
 SOLVING FOR HEAD 
 INITIAL HNEW IS AN EXACT SOLUTION.

 NO OUTPUT CONTROL FOR STRESS PERIOD   25   TIME STEP 4196

 -------------------------------------------------------------------------------
                             SWR1 OUTPUT PRINT TIMES
                        STRESS PERIOD   25   TIME STEP  4196
 --------------- --------------- --------------- --------------- ---------------
     0.58992E+06                                                                
 -------------------------------------------------------------------------------
 
 SOLVING FOR HEAD 
 INITIAL HNEW IS AN EXACT SOLUTION.

 NO OUTPUT CONTROL FOR STRESS PERIOD   25   TIME STEP 4197

 -------------------------------------------------------------------------------
                             SWR1 OUTPUT PRINT TIMES
                        STRESS PERIOD   25   TIME STEP  4197
 --------------- --------------- --------------- --------------- ---------------
     0.59004E+06                                                                
 -------------------------------------------------------------------------------
 
 SOLVING FOR HEAD 
 INITIAL HNEW IS AN EXACT SOLUTION.

 NO OUTPUT CONTROL FOR STRESS PERIOD   25   TIME STEP 4198

 -------------------------------------------------------------------------------
                             SWR1 OUTPUT PRINT TIMES
                        STRESS PERIOD   25   TIME STEP  4198
 --------------- --------------- --------------- --------------- ---------------
     0.59016E+06                                                                
 -------------------------------------------------------------------------------
 
 SOLVING FOR HEAD 
 INITIAL HNEW IS AN EXACT SOLUTION.

 NO OUTPUT CONTROL FOR STRESS PERIOD   25   TIME STEP 4199

 -------------------------------------------------------------------------------
                             SWR1 OUTPUT PRINT TIMES
                        STRESS PERIOD   25   TIME STEP  4199
 --------------- --------------- --------------- --------------- ---------------
     0.59028E+06                                                                
 -------------------------------------------------------------------------------
 
 SOLVING FOR HEAD 
 INITIAL HNEW IS AN EXACT SOLUTION.

 NO OUTPUT CONTROL FOR STRESS PERIOD   25   TIME STEP 4200

 -------------------------------------------------------------------------------
                             SWR1 OUTPUT PRINT TIMES
                        STRESS PERIOD   25   TIME STEP  4200
 --------------- --------------- --------------- --------------- ---------------
     0.59040E+06                                                                
 -------------------------------------------------------------------------------
 
 SOLVING FOR HEAD 
 INITIAL HNEW IS AN EXACT SOLUTION.

 NO OUTPUT CONTROL FOR STRESS PERIOD   25   TIME STEP 4201

 -------------------------------------------------------------------------------
                             SWR1 OUTPUT PRINT TIMES
                        STRESS PERIOD   25   TIME STEP  4201
 --------------- --------------- --------------- --------------- ---------------
     0.59052E+06                                                                
 -------------------------------------------------------------------------------
 
 SOLVING FOR HEAD 
 INITIAL HNEW IS AN EXACT SOLUTION.

 NO OUTPUT CONTROL FOR STRESS PERIOD   25   TIME STEP 4202

 -------------------------------------------------------------------------------
                             SWR1 OUTPUT PRINT TIMES
                        STRESS PERIOD   25   TIME STEP  4202
 --------------- --------------- --------------- --------------- ---------------
     0.59064E+06                                                                
 -------------------------------------------------------------------------------
 
 SOLVING FOR HEAD 
 INITIAL HNEW IS AN EXACT SOLUTION.

 NO OUTPUT CONTROL FOR STRESS PERIOD   25   TIME STEP 4203

 -------------------------------------------------------------------------------
                             SWR1 OUTPUT PRINT TIMES
                        STRESS PERIOD   25   TIME STEP  4203
 --------------- --------------- --------------- --------------- ---------------
     0.59076E+06                                                                
 -------------------------------------------------------------------------------
 
 SOLVING FOR HEAD 
 INITIAL HNEW IS AN EXACT SOLUTION.

 NO OUTPUT CONTROL FOR STRESS PERIOD   25   TIME STEP 4204

 -------------------------------------------------------------------------------
                             SWR1 OUTPUT PRINT TIMES
                        STRESS PERIOD   25   TIME STEP  4204
 --------------- --------------- --------------- --------------- ---------------
     0.59088E+06                                                                
 -------------------------------------------------------------------------------
 
 SOLVING FOR HEAD 
 INITIAL HNEW IS AN EXACT SOLUTION.

 NO OUTPUT CONTROL FOR STRESS PERIOD   25   TIME STEP 4205

 -------------------------------------------------------------------------------
                             SWR1 OUTPUT PRINT TIMES
                        STRESS PERIOD   25   TIME STEP  4205
 --------------- --------------- --------------- --------------- ---------------
     0.59100E+06                                                                
 -------------------------------------------------------------------------------
 
 SOLVING FOR HEAD 
 INITIAL HNEW IS AN EXACT SOLUTION.

 NO OUTPUT CONTROL FOR STRESS PERIOD   25   TIME STEP 4206

 -------------------------------------------------------------------------------
                             SWR1 OUTPUT PRINT TIMES
                        STRESS PERIOD   25   TIME STEP  4206
 --------------- --------------- --------------- --------------- ---------------
     0.59112E+06                                                                
 -------------------------------------------------------------------------------
 
 SOLVING FOR HEAD 
 INITIAL HNEW IS AN EXACT SOLUTION.

 NO OUTPUT CONTROL FOR STRESS PERIOD   25   TIME STEP 4207

 -------------------------------------------------------------------------------
                             SWR1 OUTPUT PRINT TIMES
                        STRESS PERIOD   25   TIME STEP  4207
 --------------- --------------- --------------- --------------- ---------------
     0.59124E+06                                                                
 -------------------------------------------------------------------------------
 
 SOLVING FOR HEAD 
 INITIAL HNEW IS AN EXACT SOLUTION.

 NO OUTPUT CONTROL FOR STRESS PERIOD   25   TIME STEP 4208

 -------------------------------------------------------------------------------
                             SWR1 OUTPUT PRINT TIMES
                        STRESS PERIOD   25   TIME STEP  4208
 --------------- --------------- --------------- --------------- ---------------
     0.59136E+06                                                                
 -------------------------------------------------------------------------------
 
 SOLVING FOR HEAD 
 INITIAL HNEW IS AN EXACT SOLUTION.

 NO OUTPUT CONTROL FOR STRESS PERIOD   25   TIME STEP 4209

 -------------------------------------------------------------------------------
                             SWR1 OUTPUT PRINT TIMES
                        STRESS PERIOD   25   TIME STEP  4209
 --------------- --------------- --------------- --------------- ---------------
     0.59148E+06                                                                
 -------------------------------------------------------------------------------
 
 SOLVING FOR HEAD 
 INITIAL HNEW IS AN EXACT SOLUTION.

 NO OUTPUT CONTROL FOR STRESS PERIOD   25   TIME STEP 4210

 -------------------------------------------------------------------------------
                             SWR1 OUTPUT PRINT TIMES
                        STRESS PERIOD   25   TIME STEP  4210
 --------------- --------------- --------------- --------------- ---------------
     0.59160E+06                                                                
 -------------------------------------------------------------------------------
 
 SOLVING FOR HEAD 
 INITIAL HNEW IS AN EXACT SOLUTION.

 NO OUTPUT CONTROL FOR STRESS PERIOD   25   TIME STEP 4211

 -------------------------------------------------------------------------------
                             SWR1 OUTPUT PRINT TIMES
                        STRESS PERIOD   25   TIME STEP  4211
 --------------- --------------- --------------- --------------- ---------------
     0.59172E+06                                                                
 -------------------------------------------------------------------------------
 
 SOLVING FOR HEAD 
 INITIAL HNEW IS AN EXACT SOLUTION.

 NO OUTPUT CONTROL FOR STRESS PERIOD   25   TIME STEP 4212

 -------------------------------------------------------------------------------
                             SWR1 OUTPUT PRINT TIMES
                        STRESS PERIOD   25   TIME STEP  4212
 --------------- --------------- --------------- --------------- ---------------
     0.59184E+06                                                                
 -------------------------------------------------------------------------------
 
 SOLVING FOR HEAD 
 INITIAL HNEW IS AN EXACT SOLUTION.

 NO OUTPUT CONTROL FOR STRESS PERIOD   25   TIME STEP 4213

 -------------------------------------------------------------------------------
                             SWR1 OUTPUT PRINT TIMES
                        STRESS PERIOD   25   TIME STEP  4213
 --------------- --------------- --------------- --------------- ---------------
     0.59196E+06                                                                
 -------------------------------------------------------------------------------
 
 SOLVING FOR HEAD 
 INITIAL HNEW IS AN EXACT SOLUTION.

 NO OUTPUT CONTROL FOR STRESS PERIOD   25   TIME STEP 4214

 -------------------------------------------------------------------------------
                             SWR1 OUTPUT PRINT TIMES
                        STRESS PERIOD   25   TIME STEP  4214
 --------------- --------------- --------------- --------------- ---------------
     0.59208E+06                                                                
 -------------------------------------------------------------------------------
 
 SOLVING FOR HEAD 
 INITIAL HNEW IS AN EXACT SOLUTION.

 NO OUTPUT CONTROL FOR STRESS PERIOD   25   TIME STEP 4215

 -------------------------------------------------------------------------------
                             SWR1 OUTPUT PRINT TIMES
                        STRESS PERIOD   25   TIME STEP  4215
 --------------- --------------- --------------- --------------- ---------------
     0.59220E+06                                                                
 -------------------------------------------------------------------------------
 
 SOLVING FOR HEAD 
 INITIAL HNEW IS AN EXACT SOLUTION.

 NO OUTPUT CONTROL FOR STRESS PERIOD   25   TIME STEP 4216

 -------------------------------------------------------------------------------
                             SWR1 OUTPUT PRINT TIMES
                        STRESS PERIOD   25   TIME STEP  4216
 --------------- --------------- --------------- --------------- ---------------
     0.59232E+06                                                                
 -------------------------------------------------------------------------------
 
 SOLVING FOR HEAD 
 INITIAL HNEW IS AN EXACT SOLUTION.

 NO OUTPUT CONTROL FOR STRESS PERIOD   25   TIME STEP 4217

 -------------------------------------------------------------------------------
                             SWR1 OUTPUT PRINT TIMES
                        STRESS PERIOD   25   TIME STEP  4217
 --------------- --------------- --------------- --------------- ---------------
     0.59244E+06                                                                
 -------------------------------------------------------------------------------
 
 SOLVING FOR HEAD 
 INITIAL HNEW IS AN EXACT SOLUTION.

 NO OUTPUT CONTROL FOR STRESS PERIOD   25   TIME STEP 4218

 -------------------------------------------------------------------------------
                             SWR1 OUTPUT PRINT TIMES
                        STRESS PERIOD   25   TIME STEP  4218
 --------------- --------------- --------------- --------------- ---------------
     0.59256E+06                                                                
 -------------------------------------------------------------------------------
 
 SOLVING FOR HEAD 
 INITIAL HNEW IS AN EXACT SOLUTION.

 NO OUTPUT CONTROL FOR STRESS PERIOD   25   TIME STEP 4219

 -------------------------------------------------------------------------------
                             SWR1 OUTPUT PRINT TIMES
                        STRESS PERIOD   25   TIME STEP  4219
 --------------- --------------- --------------- --------------- ---------------
     0.59268E+06                                                                
 -------------------------------------------------------------------------------
 
 SOLVING FOR HEAD 
 INITIAL HNEW IS AN EXACT SOLUTION.

 NO OUTPUT CONTROL FOR STRESS PERIOD   25   TIME STEP 4220

 -------------------------------------------------------------------------------
                             SWR1 OUTPUT PRINT TIMES
                        STRESS PERIOD   25   TIME STEP  4220
 --------------- --------------- --------------- --------------- ---------------
     0.59280E+06                                                                
 -------------------------------------------------------------------------------
 
 SOLVING FOR HEAD 
 INITIAL HNEW IS AN EXACT SOLUTION.

 NO OUTPUT CONTROL FOR STRESS PERIOD   25   TIME STEP 4221

 -------------------------------------------------------------------------------
                             SWR1 OUTPUT PRINT TIMES
                        STRESS PERIOD   25   TIME STEP  4221
 --------------- --------------- --------------- --------------- ---------------
     0.59292E+06                                                                
 -------------------------------------------------------------------------------
 
 SOLVING FOR HEAD 
 INITIAL HNEW IS AN EXACT SOLUTION.

 NO OUTPUT CONTROL FOR STRESS PERIOD   25   TIME STEP 4222

 -------------------------------------------------------------------------------
                             SWR1 OUTPUT PRINT TIMES
                        STRESS PERIOD   25   TIME STEP  4222
 --------------- --------------- --------------- --------------- ---------------
     0.59304E+06                                                                
 -------------------------------------------------------------------------------
 
 SOLVING FOR HEAD 
 INITIAL HNEW IS AN EXACT SOLUTION.

 NO OUTPUT CONTROL FOR STRESS PERIOD   25   TIME STEP 4223

 -------------------------------------------------------------------------------
                             SWR1 OUTPUT PRINT TIMES
                        STRESS PERIOD   25   TIME STEP  4223
 --------------- --------------- --------------- --------------- ---------------
     0.59316E+06                                                                
 -------------------------------------------------------------------------------
 
 SOLVING FOR HEAD 
 INITIAL HNEW IS AN EXACT SOLUTION.

 NO OUTPUT CONTROL FOR STRESS PERIOD   25   TIME STEP 4224

 -------------------------------------------------------------------------------
                             SWR1 OUTPUT PRINT TIMES
                        STRESS PERIOD   25   TIME STEP  4224
 --------------- --------------- --------------- --------------- ---------------
     0.59328E+06                                                                
 -------------------------------------------------------------------------------
 
 SOLVING FOR HEAD 
 INITIAL HNEW IS AN EXACT SOLUTION.

 NO OUTPUT CONTROL FOR STRESS PERIOD   25   TIME STEP 4225

 -------------------------------------------------------------------------------
                             SWR1 OUTPUT PRINT TIMES
                        STRESS PERIOD   25   TIME STEP  4225
 --------------- --------------- --------------- --------------- ---------------
     0.59340E+06                                                                
 -------------------------------------------------------------------------------
 
 SOLVING FOR HEAD 
 INITIAL HNEW IS AN EXACT SOLUTION.

 NO OUTPUT CONTROL FOR STRESS PERIOD   25   TIME STEP 4226

 -------------------------------------------------------------------------------
                             SWR1 OUTPUT PRINT TIMES
                        STRESS PERIOD   25   TIME STEP  4226
 --------------- --------------- --------------- --------------- ---------------
     0.59352E+06                                                                
 -------------------------------------------------------------------------------
 
 SOLVING FOR HEAD 
 INITIAL HNEW IS AN EXACT SOLUTION.

 NO OUTPUT CONTROL FOR STRESS PERIOD   25   TIME STEP 4227

 -------------------------------------------------------------------------------
                             SWR1 OUTPUT PRINT TIMES
                        STRESS PERIOD   25   TIME STEP  4227
 --------------- --------------- --------------- --------------- ---------------
     0.59364E+06                                                                
 -------------------------------------------------------------------------------
 
 SOLVING FOR HEAD 
 INITIAL HNEW IS AN EXACT SOLUTION.

 NO OUTPUT CONTROL FOR STRESS PERIOD   25   TIME STEP 4228

 -------------------------------------------------------------------------------
                             SWR1 OUTPUT PRINT TIMES
                        STRESS PERIOD   25   TIME STEP  4228
 --------------- --------------- --------------- --------------- ---------------
     0.59376E+06                                                                
 -------------------------------------------------------------------------------
 
 SOLVING FOR HEAD 
 INITIAL HNEW IS AN EXACT SOLUTION.

 NO OUTPUT CONTROL FOR STRESS PERIOD   25   TIME STEP 4229

 -------------------------------------------------------------------------------
                             SWR1 OUTPUT PRINT TIMES
                        STRESS PERIOD   25   TIME STEP  4229
 --------------- --------------- --------------- --------------- ---------------
     0.59388E+06                                                                
 -------------------------------------------------------------------------------
 
 SOLVING FOR HEAD 
 INITIAL HNEW IS AN EXACT SOLUTION.

 NO OUTPUT CONTROL FOR STRESS PERIOD   25   TIME STEP 4230

 -------------------------------------------------------------------------------
                             SWR1 OUTPUT PRINT TIMES
                        STRESS PERIOD   25   TIME STEP  4230
 --------------- --------------- --------------- --------------- ---------------
     0.59400E+06                                                                
 -------------------------------------------------------------------------------
 
 SOLVING FOR HEAD 
 INITIAL HNEW IS AN EXACT SOLUTION.

 NO OUTPUT CONTROL FOR STRESS PERIOD   25   TIME STEP 4231

 -------------------------------------------------------------------------------
                             SWR1 OUTPUT PRINT TIMES
                        STRESS PERIOD   25   TIME STEP  4231
 --------------- --------------- --------------- --------------- ---------------
     0.59412E+06                                                                
 -------------------------------------------------------------------------------
 
 SOLVING FOR HEAD 
 INITIAL HNEW IS AN EXACT SOLUTION.

 NO OUTPUT CONTROL FOR STRESS PERIOD   25   TIME STEP 4232

 -------------------------------------------------------------------------------
                             SWR1 OUTPUT PRINT TIMES
                        STRESS PERIOD   25   TIME STEP  4232
 --------------- --------------- --------------- --------------- ---------------
     0.59424E+06                                                                
 -------------------------------------------------------------------------------
 
 SOLVING FOR HEAD 
 INITIAL HNEW IS AN EXACT SOLUTION.

 NO OUTPUT CONTROL FOR STRESS PERIOD   25   TIME STEP 4233

 -------------------------------------------------------------------------------
                             SWR1 OUTPUT PRINT TIMES
                        STRESS PERIOD   25   TIME STEP  4233
 --------------- --------------- --------------- --------------- ---------------
     0.59436E+06                                                                
 -------------------------------------------------------------------------------
 
 SOLVING FOR HEAD 
 INITIAL HNEW IS AN EXACT SOLUTION.

 NO OUTPUT CONTROL FOR STRESS PERIOD   25   TIME STEP 4234

 -------------------------------------------------------------------------------
                             SWR1 OUTPUT PRINT TIMES
                        STRESS PERIOD   25   TIME STEP  4234
 --------------- --------------- --------------- --------------- ---------------
     0.59448E+06                                                                
 -------------------------------------------------------------------------------
 
 SOLVING FOR HEAD 
 INITIAL HNEW IS AN EXACT SOLUTION.

 NO OUTPUT CONTROL FOR STRESS PERIOD   25   TIME STEP 4235

 -------------------------------------------------------------------------------
                             SWR1 OUTPUT PRINT TIMES
                        STRESS PERIOD   25   TIME STEP  4235
 --------------- --------------- --------------- --------------- ---------------
     0.59460E+06                                                                
 -------------------------------------------------------------------------------
 
 SOLVING FOR HEAD 
 INITIAL HNEW IS AN EXACT SOLUTION.

 NO OUTPUT CONTROL FOR STRESS PERIOD   25   TIME STEP 4236

 -------------------------------------------------------------------------------
                             SWR1 OUTPUT PRINT TIMES
                        STRESS PERIOD   25   TIME STEP  4236
 --------------- --------------- --------------- --------------- ---------------
     0.59472E+06                                                                
 -------------------------------------------------------------------------------
 
 SOLVING FOR HEAD 
 INITIAL HNEW IS AN EXACT SOLUTION.

 NO OUTPUT CONTROL FOR STRESS PERIOD   25   TIME STEP 4237

 -------------------------------------------------------------------------------
                             SWR1 OUTPUT PRINT TIMES
                        STRESS PERIOD   25   TIME STEP  4237
 --------------- --------------- --------------- --------------- ---------------
     0.59484E+06                                                                
 -------------------------------------------------------------------------------
 
 SOLVING FOR HEAD 
 INITIAL HNEW IS AN EXACT SOLUTION.

 NO OUTPUT CONTROL FOR STRESS PERIOD   25   TIME STEP 4238

 -------------------------------------------------------------------------------
                             SWR1 OUTPUT PRINT TIMES
                        STRESS PERIOD   25   TIME STEP  4238
 --------------- --------------- --------------- --------------- ---------------
     0.59496E+06                                                                
 -------------------------------------------------------------------------------
 
 SOLVING FOR HEAD 
 INITIAL HNEW IS AN EXACT SOLUTION.

 NO OUTPUT CONTROL FOR STRESS PERIOD   25   TIME STEP 4239

 -------------------------------------------------------------------------------
                             SWR1 OUTPUT PRINT TIMES
                        STRESS PERIOD   25   TIME STEP  4239
 --------------- --------------- --------------- --------------- ---------------
     0.59508E+06                                                                
 -------------------------------------------------------------------------------
 
 SOLVING FOR HEAD 
 INITIAL HNEW IS AN EXACT SOLUTION.

 NO OUTPUT CONTROL FOR STRESS PERIOD   25   TIME STEP 4240

 -------------------------------------------------------------------------------
                             SWR1 OUTPUT PRINT TIMES
                        STRESS PERIOD   25   TIME STEP  4240
 --------------- --------------- --------------- --------------- ---------------
     0.59520E+06                                                                
 -------------------------------------------------------------------------------
 
 SOLVING FOR HEAD 
 INITIAL HNEW IS AN EXACT SOLUTION.

 NO OUTPUT CONTROL FOR STRESS PERIOD   25   TIME STEP 4241

 -------------------------------------------------------------------------------
                             SWR1 OUTPUT PRINT TIMES
                        STRESS PERIOD   25   TIME STEP  4241
 --------------- --------------- --------------- --------------- ---------------
     0.59532E+06                                                                
 -------------------------------------------------------------------------------
 
 SOLVING FOR HEAD 
 INITIAL HNEW IS AN EXACT SOLUTION.

 NO OUTPUT CONTROL FOR STRESS PERIOD   25   TIME STEP 4242

 -------------------------------------------------------------------------------
                             SWR1 OUTPUT PRINT TIMES
                        STRESS PERIOD   25   TIME STEP  4242
 --------------- --------------- --------------- --------------- ---------------
     0.59544E+06                                                                
 -------------------------------------------------------------------------------
 
 SOLVING FOR HEAD 
 INITIAL HNEW IS AN EXACT SOLUTION.

 NO OUTPUT CONTROL FOR STRESS PERIOD   25   TIME STEP 4243

 -------------------------------------------------------------------------------
                             SWR1 OUTPUT PRINT TIMES
                        STRESS PERIOD   25   TIME STEP  4243
 --------------- --------------- --------------- --------------- ---------------
     0.59556E+06                                                                
 -------------------------------------------------------------------------------
 
 SOLVING FOR HEAD 
 INITIAL HNEW IS AN EXACT SOLUTION.

 NO OUTPUT CONTROL FOR STRESS PERIOD   25   TIME STEP 4244

 -------------------------------------------------------------------------------
                             SWR1 OUTPUT PRINT TIMES
                        STRESS PERIOD   25   TIME STEP  4244
 --------------- --------------- --------------- --------------- ---------------
     0.59568E+06                                                                
 -------------------------------------------------------------------------------
 
 SOLVING FOR HEAD 
 INITIAL HNEW IS AN EXACT SOLUTION.

 NO OUTPUT CONTROL FOR STRESS PERIOD   25   TIME STEP 4245

 -------------------------------------------------------------------------------
                             SWR1 OUTPUT PRINT TIMES
                        STRESS PERIOD   25   TIME STEP  4245
 --------------- --------------- --------------- --------------- ---------------
     0.59580E+06                                                                
 -------------------------------------------------------------------------------
 
 SOLVING FOR HEAD 
 INITIAL HNEW IS AN EXACT SOLUTION.

 NO OUTPUT CONTROL FOR STRESS PERIOD   25   TIME STEP 4246

 -------------------------------------------------------------------------------
                             SWR1 OUTPUT PRINT TIMES
                        STRESS PERIOD   25   TIME STEP  4246
 --------------- --------------- --------------- --------------- ---------------
     0.59592E+06                                                                
 -------------------------------------------------------------------------------
 
 SOLVING FOR HEAD 
 INITIAL HNEW IS AN EXACT SOLUTION.

 NO OUTPUT CONTROL FOR STRESS PERIOD   25   TIME STEP 4247

 -------------------------------------------------------------------------------
                             SWR1 OUTPUT PRINT TIMES
                        STRESS PERIOD   25   TIME STEP  4247
 --------------- --------------- --------------- --------------- ---------------
     0.59604E+06                                                                
 -------------------------------------------------------------------------------
 
 SOLVING FOR HEAD 
 INITIAL HNEW IS AN EXACT SOLUTION.

 NO OUTPUT CONTROL FOR STRESS PERIOD   25   TIME STEP 4248

 -------------------------------------------------------------------------------
                             SWR1 OUTPUT PRINT TIMES
                        STRESS PERIOD   25   TIME STEP  4248
 --------------- --------------- --------------- --------------- ---------------
     0.59616E+06                                                                
 -------------------------------------------------------------------------------
 
 SOLVING FOR HEAD 
 INITIAL HNEW IS AN EXACT SOLUTION.

 NO OUTPUT CONTROL FOR STRESS PERIOD   25   TIME STEP 4249

 -------------------------------------------------------------------------------
                             SWR1 OUTPUT PRINT TIMES
                        STRESS PERIOD   25   TIME STEP  4249
 --------------- --------------- --------------- --------------- ---------------
     0.59628E+06                                                                
 -------------------------------------------------------------------------------
 
 SOLVING FOR HEAD 
 INITIAL HNEW IS AN EXACT SOLUTION.

 NO OUTPUT CONTROL FOR STRESS PERIOD   25   TIME STEP 4250

 -------------------------------------------------------------------------------
                             SWR1 OUTPUT PRINT TIMES
                        STRESS PERIOD   25   TIME STEP  4250
 --------------- --------------- --------------- --------------- ---------------
     0.59640E+06                                                                
 -------------------------------------------------------------------------------
 
 SOLVING FOR HEAD 
 INITIAL HNEW IS AN EXACT SOLUTION.

 NO OUTPUT CONTROL FOR STRESS PERIOD   25   TIME STEP 4251

 -------------------------------------------------------------------------------
                             SWR1 OUTPUT PRINT TIMES
                        STRESS PERIOD   25   TIME STEP  4251
 --------------- --------------- --------------- --------------- ---------------
     0.59652E+06                                                                
 -------------------------------------------------------------------------------
 
 SOLVING FOR HEAD 
 INITIAL HNEW IS AN EXACT SOLUTION.

 NO OUTPUT CONTROL FOR STRESS PERIOD   25   TIME STEP 4252

 -------------------------------------------------------------------------------
                             SWR1 OUTPUT PRINT TIMES
                        STRESS PERIOD   25   TIME STEP  4252
 --------------- --------------- --------------- --------------- ---------------
     0.59664E+06                                                                
 -------------------------------------------------------------------------------
 
 SOLVING FOR HEAD 
 INITIAL HNEW IS AN EXACT SOLUTION.

 NO OUTPUT CONTROL FOR STRESS PERIOD   25   TIME STEP 4253

 -------------------------------------------------------------------------------
                             SWR1 OUTPUT PRINT TIMES
                        STRESS PERIOD   25   TIME STEP  4253
 --------------- --------------- --------------- --------------- ---------------
     0.59676E+06                                                                
 -------------------------------------------------------------------------------
 
 SOLVING FOR HEAD 
 INITIAL HNEW IS AN EXACT SOLUTION.

 NO OUTPUT CONTROL FOR STRESS PERIOD   25   TIME STEP 4254

 -------------------------------------------------------------------------------
                             SWR1 OUTPUT PRINT TIMES
                        STRESS PERIOD   25   TIME STEP  4254
 --------------- --------------- --------------- --------------- ---------------
     0.59688E+06                                                                
 -------------------------------------------------------------------------------
 
 SOLVING FOR HEAD 
 INITIAL HNEW IS AN EXACT SOLUTION.

 NO OUTPUT CONTROL FOR STRESS PERIOD   25   TIME STEP 4255

 -------------------------------------------------------------------------------
                             SWR1 OUTPUT PRINT TIMES
                        STRESS PERIOD   25   TIME STEP  4255
 --------------- --------------- --------------- --------------- ---------------
     0.59700E+06                                                                
 -------------------------------------------------------------------------------
 
 SOLVING FOR HEAD 
 INITIAL HNEW IS AN EXACT SOLUTION.

 NO OUTPUT CONTROL FOR STRESS PERIOD   25   TIME STEP 4256

 -------------------------------------------------------------------------------
                             SWR1 OUTPUT PRINT TIMES
                        STRESS PERIOD   25   TIME STEP  4256
 --------------- --------------- --------------- --------------- ---------------
     0.59712E+06                                                                
 -------------------------------------------------------------------------------
 
 SOLVING FOR HEAD 
 INITIAL HNEW IS AN EXACT SOLUTION.

 NO OUTPUT CONTROL FOR STRESS PERIOD   25   TIME STEP 4257

 -------------------------------------------------------------------------------
                             SWR1 OUTPUT PRINT TIMES
                        STRESS PERIOD   25   TIME STEP  4257
 --------------- --------------- --------------- --------------- ---------------
     0.59724E+06                                                                
 -------------------------------------------------------------------------------
 
 SOLVING FOR HEAD 
 INITIAL HNEW IS AN EXACT SOLUTION.

 NO OUTPUT CONTROL FOR STRESS PERIOD   25   TIME STEP 4258

 -------------------------------------------------------------------------------
                             SWR1 OUTPUT PRINT TIMES
                        STRESS PERIOD   25   TIME STEP  4258
 --------------- --------------- --------------- --------------- ---------------
     0.59736E+06                                                                
 -------------------------------------------------------------------------------
 
 SOLVING FOR HEAD 
 INITIAL HNEW IS AN EXACT SOLUTION.

 NO OUTPUT CONTROL FOR STRESS PERIOD   25   TIME STEP 4259

 -------------------------------------------------------------------------------
                             SWR1 OUTPUT PRINT TIMES
                        STRESS PERIOD   25   TIME STEP  4259
 --------------- --------------- --------------- --------------- ---------------
     0.59748E+06                                                                
 -------------------------------------------------------------------------------
 
 SOLVING FOR HEAD 
 INITIAL HNEW IS AN EXACT SOLUTION.

 NO OUTPUT CONTROL FOR STRESS PERIOD   25   TIME STEP 4260

 -------------------------------------------------------------------------------
                             SWR1 OUTPUT PRINT TIMES
                        STRESS PERIOD   25   TIME STEP  4260
 --------------- --------------- --------------- --------------- ---------------
     0.59760E+06                                                                
 -------------------------------------------------------------------------------
 
 SOLVING FOR HEAD 
 INITIAL HNEW IS AN EXACT SOLUTION.

 NO OUTPUT CONTROL FOR STRESS PERIOD   25   TIME STEP 4261

 -------------------------------------------------------------------------------
                             SWR1 OUTPUT PRINT TIMES
                        STRESS PERIOD   25   TIME STEP  4261
 --------------- --------------- --------------- --------------- ---------------
     0.59772E+06                                                                
 -------------------------------------------------------------------------------
 
 SOLVING FOR HEAD 
 INITIAL HNEW IS AN EXACT SOLUTION.

 NO OUTPUT CONTROL FOR STRESS PERIOD   25   TIME STEP 4262

 -------------------------------------------------------------------------------
                             SWR1 OUTPUT PRINT TIMES
                        STRESS PERIOD   25   TIME STEP  4262
 --------------- --------------- --------------- --------------- ---------------
     0.59784E+06                                                                
 -------------------------------------------------------------------------------
 
 SOLVING FOR HEAD 
 INITIAL HNEW IS AN EXACT SOLUTION.

 NO OUTPUT CONTROL FOR STRESS PERIOD   25   TIME STEP 4263

 -------------------------------------------------------------------------------
                             SWR1 OUTPUT PRINT TIMES
                        STRESS PERIOD   25   TIME STEP  4263
 --------------- --------------- --------------- --------------- ---------------
     0.59796E+06                                                                
 -------------------------------------------------------------------------------
 
 SOLVING FOR HEAD 
 INITIAL HNEW IS AN EXACT SOLUTION.

 NO OUTPUT CONTROL FOR STRESS PERIOD   25   TIME STEP 4264

 -------------------------------------------------------------------------------
                             SWR1 OUTPUT PRINT TIMES
                        STRESS PERIOD   25   TIME STEP  4264
 --------------- --------------- --------------- --------------- ---------------
     0.59808E+06                                                                
 -------------------------------------------------------------------------------
 
 SOLVING FOR HEAD 
 INITIAL HNEW IS AN EXACT SOLUTION.

 NO OUTPUT CONTROL FOR STRESS PERIOD   25   TIME STEP 4265

 -------------------------------------------------------------------------------
                             SWR1 OUTPUT PRINT TIMES
                        STRESS PERIOD   25   TIME STEP  4265
 --------------- --------------- --------------- --------------- ---------------
     0.59820E+06                                                                
 -------------------------------------------------------------------------------
 
 SOLVING FOR HEAD 
 INITIAL HNEW IS AN EXACT SOLUTION.

 NO OUTPUT CONTROL FOR STRESS PERIOD   25   TIME STEP 4266

 -------------------------------------------------------------------------------
                             SWR1 OUTPUT PRINT TIMES
                        STRESS PERIOD   25   TIME STEP  4266
 --------------- --------------- --------------- --------------- ---------------
     0.59832E+06                                                                
 -------------------------------------------------------------------------------
 
 SOLVING FOR HEAD 
 INITIAL HNEW IS AN EXACT SOLUTION.

 NO OUTPUT CONTROL FOR STRESS PERIOD   25   TIME STEP 4267

 -------------------------------------------------------------------------------
                             SWR1 OUTPUT PRINT TIMES
                        STRESS PERIOD   25   TIME STEP  4267
 --------------- --------------- --------------- --------------- ---------------
     0.59844E+06                                                                
 -------------------------------------------------------------------------------
 
 SOLVING FOR HEAD 
 INITIAL HNEW IS AN EXACT SOLUTION.

 NO OUTPUT CONTROL FOR STRESS PERIOD   25   TIME STEP 4268

 -------------------------------------------------------------------------------
                             SWR1 OUTPUT PRINT TIMES
                        STRESS PERIOD   25   TIME STEP  4268
 --------------- --------------- --------------- --------------- ---------------
     0.59856E+06                                                                
 -------------------------------------------------------------------------------
 
 SOLVING FOR HEAD 
 INITIAL HNEW IS AN EXACT SOLUTION.

 NO OUTPUT CONTROL FOR STRESS PERIOD   25   TIME STEP 4269

 -------------------------------------------------------------------------------
                             SWR1 OUTPUT PRINT TIMES
                        STRESS PERIOD   25   TIME STEP  4269
 --------------- --------------- --------------- --------------- ---------------
     0.59868E+06                                                                
 -------------------------------------------------------------------------------
 
 SOLVING FOR HEAD 
 INITIAL HNEW IS AN EXACT SOLUTION.

 NO OUTPUT CONTROL FOR STRESS PERIOD   25   TIME STEP 4270

 -------------------------------------------------------------------------------
                             SWR1 OUTPUT PRINT TIMES
                        STRESS PERIOD   25   TIME STEP  4270
 --------------- --------------- --------------- --------------- ---------------
     0.59880E+06                                                                
 -------------------------------------------------------------------------------
 
 SOLVING FOR HEAD 
 INITIAL HNEW IS AN EXACT SOLUTION.

 NO OUTPUT CONTROL FOR STRESS PERIOD   25   TIME STEP 4271

 -------------------------------------------------------------------------------
                             SWR1 OUTPUT PRINT TIMES
                        STRESS PERIOD   25   TIME STEP  4271
 --------------- --------------- --------------- --------------- ---------------
     0.59892E+06                                                                
 -------------------------------------------------------------------------------
 
 SOLVING FOR HEAD 
 INITIAL HNEW IS AN EXACT SOLUTION.

 NO OUTPUT CONTROL FOR STRESS PERIOD   25   TIME STEP 4272

 -------------------------------------------------------------------------------
                             SWR1 OUTPUT PRINT TIMES
                        STRESS PERIOD   25   TIME STEP  4272
 --------------- --------------- --------------- --------------- ---------------
     0.59904E+06                                                                
 -------------------------------------------------------------------------------
 
 SOLVING FOR HEAD 
 INITIAL HNEW IS AN EXACT SOLUTION.

 NO OUTPUT CONTROL FOR STRESS PERIOD   25   TIME STEP 4273

 -------------------------------------------------------------------------------
                             SWR1 OUTPUT PRINT TIMES
                        STRESS PERIOD   25   TIME STEP  4273
 --------------- --------------- --------------- --------------- ---------------
     0.59916E+06                                                                
 -------------------------------------------------------------------------------
 
 SOLVING FOR HEAD 
 INITIAL HNEW IS AN EXACT SOLUTION.

 NO OUTPUT CONTROL FOR STRESS PERIOD   25   TIME STEP 4274

 -------------------------------------------------------------------------------
                             SWR1 OUTPUT PRINT TIMES
                        STRESS PERIOD   25   TIME STEP  4274
 --------------- --------------- --------------- --------------- ---------------
     0.59928E+06                                                                
 -------------------------------------------------------------------------------
 
 SOLVING FOR HEAD 
 INITIAL HNEW IS AN EXACT SOLUTION.

 NO OUTPUT CONTROL FOR STRESS PERIOD   25   TIME STEP 4275

 -------------------------------------------------------------------------------
                             SWR1 OUTPUT PRINT TIMES
                        STRESS PERIOD   25   TIME STEP  4275
 --------------- --------------- --------------- --------------- ---------------
     0.59940E+06                                                                
 -------------------------------------------------------------------------------
 
 SOLVING FOR HEAD 
 INITIAL HNEW IS AN EXACT SOLUTION.

 NO OUTPUT CONTROL FOR STRESS PERIOD   25   TIME STEP 4276

 -------------------------------------------------------------------------------
                             SWR1 OUTPUT PRINT TIMES
                        STRESS PERIOD   25   TIME STEP  4276
 --------------- --------------- --------------- --------------- ---------------
     0.59952E+06                                                                
 -------------------------------------------------------------------------------
 
 SOLVING FOR HEAD 
 INITIAL HNEW IS AN EXACT SOLUTION.

 NO OUTPUT CONTROL FOR STRESS PERIOD   25   TIME STEP 4277

 -------------------------------------------------------------------------------
                             SWR1 OUTPUT PRINT TIMES
                        STRESS PERIOD   25   TIME STEP  4277
 --------------- --------------- --------------- --------------- ---------------
     0.59964E+06                                                                
 -------------------------------------------------------------------------------
 
 SOLVING FOR HEAD 
 INITIAL HNEW IS AN EXACT SOLUTION.

 NO OUTPUT CONTROL FOR STRESS PERIOD   25   TIME STEP 4278

 -------------------------------------------------------------------------------
                             SWR1 OUTPUT PRINT TIMES
                        STRESS PERIOD   25   TIME STEP  4278
 --------------- --------------- --------------- --------------- ---------------
     0.59976E+06                                                                
 -------------------------------------------------------------------------------
 
 SOLVING FOR HEAD 
 INITIAL HNEW IS AN EXACT SOLUTION.

 NO OUTPUT CONTROL FOR STRESS PERIOD   25   TIME STEP 4279

 -------------------------------------------------------------------------------
                             SWR1 OUTPUT PRINT TIMES
                        STRESS PERIOD   25   TIME STEP  4279
 --------------- --------------- --------------- --------------- ---------------
     0.59988E+06                                                                
 -------------------------------------------------------------------------------
 
 SOLVING FOR HEAD 
 INITIAL HNEW IS AN EXACT SOLUTION.

 NO OUTPUT CONTROL FOR STRESS PERIOD   25   TIME STEP 4280

 -------------------------------------------------------------------------------
                             SWR1 OUTPUT PRINT TIMES
                        STRESS PERIOD   25   TIME STEP  4280
 --------------- --------------- --------------- --------------- ---------------
     0.60000E+06                                                                
 -------------------------------------------------------------------------------
 
 SOLVING FOR HEAD 
 INITIAL HNEW IS AN EXACT SOLUTION.

 NO OUTPUT CONTROL FOR STRESS PERIOD   25   TIME STEP 4281

 -------------------------------------------------------------------------------
                             SWR1 OUTPUT PRINT TIMES
                        STRESS PERIOD   25   TIME STEP  4281
 --------------- --------------- --------------- --------------- ---------------
     0.60012E+06                                                                
 -------------------------------------------------------------------------------
 
 SOLVING FOR HEAD 
 INITIAL HNEW IS AN EXACT SOLUTION.

 NO OUTPUT CONTROL FOR STRESS PERIOD   25   TIME STEP 4282

 -------------------------------------------------------------------------------
                             SWR1 OUTPUT PRINT TIMES
                        STRESS PERIOD   25   TIME STEP  4282
 --------------- --------------- --------------- --------------- ---------------
     0.60024E+06                                                                
 -------------------------------------------------------------------------------
 
 SOLVING FOR HEAD 
 INITIAL HNEW IS AN EXACT SOLUTION.

 NO OUTPUT CONTROL FOR STRESS PERIOD   25   TIME STEP 4283

 -------------------------------------------------------------------------------
                             SWR1 OUTPUT PRINT TIMES
                        STRESS PERIOD   25   TIME STEP  4283
 --------------- --------------- --------------- --------------- ---------------
     0.60036E+06                                                                
 -------------------------------------------------------------------------------
 
 SOLVING FOR HEAD 
 INITIAL HNEW IS AN EXACT SOLUTION.

 NO OUTPUT CONTROL FOR STRESS PERIOD   25   TIME STEP 4284

 -------------------------------------------------------------------------------
                             SWR1 OUTPUT PRINT TIMES
                        STRESS PERIOD   25   TIME STEP  4284
 --------------- --------------- --------------- --------------- ---------------
     0.60048E+06                                                                
 -------------------------------------------------------------------------------
 
 SOLVING FOR HEAD 
 INITIAL HNEW IS AN EXACT SOLUTION.

 NO OUTPUT CONTROL FOR STRESS PERIOD   25   TIME STEP 4285

 -------------------------------------------------------------------------------
                             SWR1 OUTPUT PRINT TIMES
                        STRESS PERIOD   25   TIME STEP  4285
 --------------- --------------- --------------- --------------- ---------------
     0.60060E+06                                                                
 -------------------------------------------------------------------------------
 
 SOLVING FOR HEAD 
 INITIAL HNEW IS AN EXACT SOLUTION.

 NO OUTPUT CONTROL FOR STRESS PERIOD   25   TIME STEP 4286

 -------------------------------------------------------------------------------
                             SWR1 OUTPUT PRINT TIMES
                        STRESS PERIOD   25   TIME STEP  4286
 --------------- --------------- --------------- --------------- ---------------
     0.60072E+06                                                                
 -------------------------------------------------------------------------------
 
 SOLVING FOR HEAD 
 INITIAL HNEW IS AN EXACT SOLUTION.

 NO OUTPUT CONTROL FOR STRESS PERIOD   25   TIME STEP 4287

 -------------------------------------------------------------------------------
                             SWR1 OUTPUT PRINT TIMES
                        STRESS PERIOD   25   TIME STEP  4287
 --------------- --------------- --------------- --------------- ---------------
     0.60084E+06                                                                
 -------------------------------------------------------------------------------
 
 SOLVING FOR HEAD 
 INITIAL HNEW IS AN EXACT SOLUTION.

 NO OUTPUT CONTROL FOR STRESS PERIOD   25   TIME STEP 4288

 -------------------------------------------------------------------------------
                             SWR1 OUTPUT PRINT TIMES
                        STRESS PERIOD   25   TIME STEP  4288
 --------------- --------------- --------------- --------------- ---------------
     0.60096E+06                                                                
 -------------------------------------------------------------------------------
 
 SOLVING FOR HEAD 
 INITIAL HNEW IS AN EXACT SOLUTION.

 NO OUTPUT CONTROL FOR STRESS PERIOD   25   TIME STEP 4289

 -------------------------------------------------------------------------------
                             SWR1 OUTPUT PRINT TIMES
                        STRESS PERIOD   25   TIME STEP  4289
 --------------- --------------- --------------- --------------- ---------------
     0.60108E+06                                                                
 -------------------------------------------------------------------------------
 
 SOLVING FOR HEAD 
 INITIAL HNEW IS AN EXACT SOLUTION.

 NO OUTPUT CONTROL FOR STRESS PERIOD   25   TIME STEP 4290

 -------------------------------------------------------------------------------
                             SWR1 OUTPUT PRINT TIMES
                        STRESS PERIOD   25   TIME STEP  4290
 --------------- --------------- --------------- --------------- ---------------
     0.60120E+06                                                                
 -------------------------------------------------------------------------------
 
 SOLVING FOR HEAD 
 INITIAL HNEW IS AN EXACT SOLUTION.

 NO OUTPUT CONTROL FOR STRESS PERIOD   25   TIME STEP 4291

 -------------------------------------------------------------------------------
                             SWR1 OUTPUT PRINT TIMES
                        STRESS PERIOD   25   TIME STEP  4291
 --------------- --------------- --------------- --------------- ---------------
     0.60132E+06                                                                
 -------------------------------------------------------------------------------
 
 SOLVING FOR HEAD 
 INITIAL HNEW IS AN EXACT SOLUTION.

 NO OUTPUT CONTROL FOR STRESS PERIOD   25   TIME STEP 4292

 -------------------------------------------------------------------------------
                             SWR1 OUTPUT PRINT TIMES
                        STRESS PERIOD   25   TIME STEP  4292
 --------------- --------------- --------------- --------------- ---------------
     0.60144E+06                                                                
 -------------------------------------------------------------------------------
 
 SOLVING FOR HEAD 
 INITIAL HNEW IS AN EXACT SOLUTION.

 NO OUTPUT CONTROL FOR STRESS PERIOD   25   TIME STEP 4293

 -------------------------------------------------------------------------------
                             SWR1 OUTPUT PRINT TIMES
                        STRESS PERIOD   25   TIME STEP  4293
 --------------- --------------- --------------- --------------- ---------------
     0.60156E+06                                                                
 -------------------------------------------------------------------------------
 
 SOLVING FOR HEAD 
 INITIAL HNEW IS AN EXACT SOLUTION.

 NO OUTPUT CONTROL FOR STRESS PERIOD   25   TIME STEP 4294

 -------------------------------------------------------------------------------
                             SWR1 OUTPUT PRINT TIMES
                        STRESS PERIOD   25   TIME STEP  4294
 --------------- --------------- --------------- --------------- ---------------
     0.60168E+06                                                                
 -------------------------------------------------------------------------------
 
 SOLVING FOR HEAD 
 INITIAL HNEW IS AN EXACT SOLUTION.

 NO OUTPUT CONTROL FOR STRESS PERIOD   25   TIME STEP 4295

 -------------------------------------------------------------------------------
                             SWR1 OUTPUT PRINT TIMES
                        STRESS PERIOD   25   TIME STEP  4295
 --------------- --------------- --------------- --------------- ---------------
     0.60180E+06                                                                
 -------------------------------------------------------------------------------
 
 SOLVING FOR HEAD 
 INITIAL HNEW IS AN EXACT SOLUTION.

 NO OUTPUT CONTROL FOR STRESS PERIOD   25   TIME STEP 4296

 -------------------------------------------------------------------------------
                             SWR1 OUTPUT PRINT TIMES
                        STRESS PERIOD   25   TIME STEP  4296
 --------------- --------------- --------------- --------------- ---------------
     0.60192E+06                                                                
 -------------------------------------------------------------------------------
 
 SOLVING FOR HEAD 
 INITIAL HNEW IS AN EXACT SOLUTION.

 NO OUTPUT CONTROL FOR STRESS PERIOD   25   TIME STEP 4297

 -------------------------------------------------------------------------------
                             SWR1 OUTPUT PRINT TIMES
                        STRESS PERIOD   25   TIME STEP  4297
 --------------- --------------- --------------- --------------- ---------------
     0.60204E+06                                                                
 -------------------------------------------------------------------------------
 
 SOLVING FOR HEAD 
 INITIAL HNEW IS AN EXACT SOLUTION.

 NO OUTPUT CONTROL FOR STRESS PERIOD   25   TIME STEP 4298

 -------------------------------------------------------------------------------
                             SWR1 OUTPUT PRINT TIMES
                        STRESS PERIOD   25   TIME STEP  4298
 --------------- --------------- --------------- --------------- ---------------
     0.60216E+06                                                                
 -------------------------------------------------------------------------------
 
 SOLVING FOR HEAD 
 INITIAL HNEW IS AN EXACT SOLUTION.

 NO OUTPUT CONTROL FOR STRESS PERIOD   25   TIME STEP 4299

 -------------------------------------------------------------------------------
                             SWR1 OUTPUT PRINT TIMES
                        STRESS PERIOD   25   TIME STEP  4299
 --------------- --------------- --------------- --------------- ---------------
     0.60228E+06                                                                
 -------------------------------------------------------------------------------
 
 SOLVING FOR HEAD 
 INITIAL HNEW IS AN EXACT SOLUTION.

 NO OUTPUT CONTROL FOR STRESS PERIOD   25   TIME STEP 4300

 -------------------------------------------------------------------------------
                             SWR1 OUTPUT PRINT TIMES
                        STRESS PERIOD   25   TIME STEP  4300
 --------------- --------------- --------------- --------------- ---------------
     0.60240E+06                                                                
 -------------------------------------------------------------------------------
 
 SOLVING FOR HEAD 
 INITIAL HNEW IS AN EXACT SOLUTION.

 NO OUTPUT CONTROL FOR STRESS PERIOD   25   TIME STEP 4301

 -------------------------------------------------------------------------------
                             SWR1 OUTPUT PRINT TIMES
                        STRESS PERIOD   25   TIME STEP  4301
 --------------- --------------- --------------- --------------- ---------------
     0.60252E+06                                                                
 -------------------------------------------------------------------------------
 
 SOLVING FOR HEAD 
 INITIAL HNEW IS AN EXACT SOLUTION.

 NO OUTPUT CONTROL FOR STRESS PERIOD   25   TIME STEP 4302

 -------------------------------------------------------------------------------
                             SWR1 OUTPUT PRINT TIMES
                        STRESS PERIOD   25   TIME STEP  4302
 --------------- --------------- --------------- --------------- ---------------
     0.60264E+06                                                                
 -------------------------------------------------------------------------------
 
 SOLVING FOR HEAD 
 INITIAL HNEW IS AN EXACT SOLUTION.

 NO OUTPUT CONTROL FOR STRESS PERIOD   25   TIME STEP 4303

 -------------------------------------------------------------------------------
                             SWR1 OUTPUT PRINT TIMES
                        STRESS PERIOD   25   TIME STEP  4303
 --------------- --------------- --------------- --------------- ---------------
     0.60276E+06                                                                
 -------------------------------------------------------------------------------
 
 SOLVING FOR HEAD 
 INITIAL HNEW IS AN EXACT SOLUTION.

 NO OUTPUT CONTROL FOR STRESS PERIOD   25   TIME STEP 4304

 -------------------------------------------------------------------------------
                             SWR1 OUTPUT PRINT TIMES
                        STRESS PERIOD   25   TIME STEP  4304
 --------------- --------------- --------------- --------------- ---------------
     0.60288E+06                                                                
 -------------------------------------------------------------------------------
 
 SOLVING FOR HEAD 
 INITIAL HNEW IS AN EXACT SOLUTION.

 NO OUTPUT CONTROL FOR STRESS PERIOD   25   TIME STEP 4305

 -------------------------------------------------------------------------------
                             SWR1 OUTPUT PRINT TIMES
                        STRESS PERIOD   25   TIME STEP  4305
 --------------- --------------- --------------- --------------- ---------------
     0.60300E+06                                                                
 -------------------------------------------------------------------------------
 
 SOLVING FOR HEAD 
 INITIAL HNEW IS AN EXACT SOLUTION.

 NO OUTPUT CONTROL FOR STRESS PERIOD   25   TIME STEP 4306

 -------------------------------------------------------------------------------
                             SWR1 OUTPUT PRINT TIMES
                        STRESS PERIOD   25   TIME STEP  4306
 --------------- --------------- --------------- --------------- ---------------
     0.60312E+06                                                                
 -------------------------------------------------------------------------------
 
 SOLVING FOR HEAD 
 INITIAL HNEW IS AN EXACT SOLUTION.

 NO OUTPUT CONTROL FOR STRESS PERIOD   25   TIME STEP 4307

 -------------------------------------------------------------------------------
                             SWR1 OUTPUT PRINT TIMES
                        STRESS PERIOD   25   TIME STEP  4307
 --------------- --------------- --------------- --------------- ---------------
     0.60324E+06                                                                
 -------------------------------------------------------------------------------
 
 SOLVING FOR HEAD 
 INITIAL HNEW IS AN EXACT SOLUTION.

 NO OUTPUT CONTROL FOR STRESS PERIOD   25   TIME STEP 4308

 -------------------------------------------------------------------------------
                             SWR1 OUTPUT PRINT TIMES
                        STRESS PERIOD   25   TIME STEP  4308
 --------------- --------------- --------------- --------------- ---------------
     0.60336E+06                                                                
 -------------------------------------------------------------------------------
 
 SOLVING FOR HEAD 
 INITIAL HNEW IS AN EXACT SOLUTION.

 NO OUTPUT CONTROL FOR STRESS PERIOD   25   TIME STEP 4309

 -------------------------------------------------------------------------------
                             SWR1 OUTPUT PRINT TIMES
                        STRESS PERIOD   25   TIME STEP  4309
 --------------- --------------- --------------- --------------- ---------------
     0.60348E+06                                                                
 -------------------------------------------------------------------------------
 
 SOLVING FOR HEAD 
 INITIAL HNEW IS AN EXACT SOLUTION.

 NO OUTPUT CONTROL FOR STRESS PERIOD   25   TIME STEP 4310

 -------------------------------------------------------------------------------
                             SWR1 OUTPUT PRINT TIMES
                        STRESS PERIOD   25   TIME STEP  4310
 --------------- --------------- --------------- --------------- ---------------
     0.60360E+06                                                                
 -------------------------------------------------------------------------------
 
 SOLVING FOR HEAD 
 INITIAL HNEW IS AN EXACT SOLUTION.

 NO OUTPUT CONTROL FOR STRESS PERIOD   25   TIME STEP 4311

 -------------------------------------------------------------------------------
                             SWR1 OUTPUT PRINT TIMES
                        STRESS PERIOD   25   TIME STEP  4311
 --------------- --------------- --------------- --------------- ---------------
     0.60372E+06                                                                
 -------------------------------------------------------------------------------
 
 SOLVING FOR HEAD 
 INITIAL HNEW IS AN EXACT SOLUTION.

 NO OUTPUT CONTROL FOR STRESS PERIOD   25   TIME STEP 4312

 -------------------------------------------------------------------------------
                             SWR1 OUTPUT PRINT TIMES
                        STRESS PERIOD   25   TIME STEP  4312
 --------------- --------------- --------------- --------------- ---------------
     0.60384E+06                                                                
 -------------------------------------------------------------------------------
 
 SOLVING FOR HEAD 
 INITIAL HNEW IS AN EXACT SOLUTION.

 NO OUTPUT CONTROL FOR STRESS PERIOD   25   TIME STEP 4313

 -------------------------------------------------------------------------------
                             SWR1 OUTPUT PRINT TIMES
                        STRESS PERIOD   25   TIME STEP  4313
 --------------- --------------- --------------- --------------- ---------------
     0.60396E+06                                                                
 -------------------------------------------------------------------------------
 
 SOLVING FOR HEAD 
 INITIAL HNEW IS AN EXACT SOLUTION.

 NO OUTPUT CONTROL FOR STRESS PERIOD   25   TIME STEP 4314

 -------------------------------------------------------------------------------
                             SWR1 OUTPUT PRINT TIMES
                        STRESS PERIOD   25   TIME STEP  4314
 --------------- --------------- --------------- --------------- ---------------
     0.60408E+06                                                                
 -------------------------------------------------------------------------------
 
 SOLVING FOR HEAD 
 INITIAL HNEW IS AN EXACT SOLUTION.

 NO OUTPUT CONTROL FOR STRESS PERIOD   25   TIME STEP 4315

 -------------------------------------------------------------------------------
                             SWR1 OUTPUT PRINT TIMES
                        STRESS PERIOD   25   TIME STEP  4315
 --------------- --------------- --------------- --------------- ---------------
     0.60420E+06                                                                
 -------------------------------------------------------------------------------
 
 SOLVING FOR HEAD 
 INITIAL HNEW IS AN EXACT SOLUTION.

 NO OUTPUT CONTROL FOR STRESS PERIOD   25   TIME STEP 4316

 -------------------------------------------------------------------------------
                             SWR1 OUTPUT PRINT TIMES
                        STRESS PERIOD   25   TIME STEP  4316
 --------------- --------------- --------------- --------------- ---------------
     0.60432E+06                                                                
 -------------------------------------------------------------------------------
 
 SOLVING FOR HEAD 
 INITIAL HNEW IS AN EXACT SOLUTION.

 NO OUTPUT CONTROL FOR STRESS PERIOD   25   TIME STEP 4317

 -------------------------------------------------------------------------------
                             SWR1 OUTPUT PRINT TIMES
                        STRESS PERIOD   25   TIME STEP  4317
 --------------- --------------- --------------- --------------- ---------------
     0.60444E+06                                                                
 -------------------------------------------------------------------------------
 
 SOLVING FOR HEAD 
 INITIAL HNEW IS AN EXACT SOLUTION.

 NO OUTPUT CONTROL FOR STRESS PERIOD   25   TIME STEP 4318

 -------------------------------------------------------------------------------
                             SWR1 OUTPUT PRINT TIMES
                        STRESS PERIOD   25   TIME STEP  4318
 --------------- --------------- --------------- --------------- ---------------
     0.60456E+06                                                                
 -------------------------------------------------------------------------------
 
 SOLVING FOR HEAD 
 INITIAL HNEW IS AN EXACT SOLUTION.

 NO OUTPUT CONTROL FOR STRESS PERIOD   25   TIME STEP 4319

 -------------------------------------------------------------------------------
                             SWR1 OUTPUT PRINT TIMES
                        STRESS PERIOD   25   TIME STEP  4319
 --------------- --------------- --------------- --------------- ---------------
     0.60468E+06                                                                
 -------------------------------------------------------------------------------
 
 SOLVING FOR HEAD 
 INITIAL HNEW IS AN EXACT SOLUTION.

 NO OUTPUT CONTROL FOR STRESS PERIOD   25   TIME STEP 4320

 -------------------------------------------------------------------------------
                             SWR1 OUTPUT PRINT TIMES
                        STRESS PERIOD   25   TIME STEP  4320
 --------------- --------------- --------------- --------------- ---------------
     0.60480E+06                                                                
 -------------------------------------------------------------------------------


                    VOLUMETRIC SURFACE WATER BUDGET FOR ENTIRE MODEL
                    AT END OF TIME STEP  4320 IN STRESS PERIOD   25
  -----------------------------------------------------------------------------------

        CUMULATIVE VOLUMES      L**3       RATES FOR THIS TIME STEP      L**3/T
        ------------------                 ------------------------

              IN:                                      IN:
              ---                                      ---
          LATERAL FLOW  =      687492.8125         LATERAL FLOW  =           0.0000
         UNSAT. RUNOFF  =           0.0000        UNSAT. RUNOFF  =           0.0000
              RAINFALL  =      999987.4375             RAINFALL  =           0.0000
           EVAPORATION  =           0.0000          EVAPORATION  =           0.0000
         REACH-AQ FLOW  =           0.0000        REACH-AQ FLOW  =           0.0000
         EXTERNAL FLOW  =           0.0000        EXTERNAL FLOW  =           0.0000
         BOUNDARY FLOW  =           0.0000        BOUNDARY FLOW  =           0.0000
         CONSTANT FLOW  =           0.0000        CONSTANT FLOW  =           0.0000
               STORAGE  =     2979849.5000              STORAGE  =           0.5060

               TOTAL IN =     4667330.0000              TOTAL IN =           0.5060

             OUT:                                     OUT:
             ----                                     ----
          LATERAL FLOW  =           0.0000         LATERAL FLOW  =           0.0000
         UNSAT. RUNOFF  =           0.0000        UNSAT. RUNOFF  =           0.0000
              RAINFALL  =           0.0000             RAINFALL  =           0.0000
           EVAPORATION  =           0.0000          EVAPORATION  =           0.0000
         REACH-AQ FLOW  =           0.0000        REACH-AQ FLOW  =           0.0000
         EXTERNAL FLOW  =           0.0000        EXTERNAL FLOW  =           0.0000
         BOUNDARY FLOW  =           0.0000        BOUNDARY FLOW  =           0.0000
         CONSTANT FLOW  =     1924197.3750        CONSTANT FLOW  =           0.5059
               STORAGE  =     2743556.2500              STORAGE  =           0.0000

              TOTAL OUT =     4667753.5000             TOTAL OUT =           0.5059

               IN - OUT =        -423.5000              IN - OUT =       1.3596E-04

    PERCENT DISCREPANCY =          -0.01     PERCENT DISCREPANCY =           0.03

1
  VOLUMETRIC BUDGET FOR ENTIRE MODEL AT END OF TIME STEP 4320, STRESS PERIOD  25
  ------------------------------------------------------------------------------

     CUMULATIVE VOLUMES      L**3       RATES FOR THIS TIME STEP      L**3/T
     ------------------                 ------------------------

           IN:                                      IN:
           ---                                      ---
             STORAGE =           0.0000               STORAGE =           0.0000
       CONSTANT HEAD =           0.0000         CONSTANT HEAD =           0.0000
         SWR LEAKAGE =           0.0000           SWR LEAKAGE =           0.0000
            SWR GWET =           0.0000              SWR GWET =           0.0000

            TOTAL IN =           0.0000              TOTAL IN =           0.0000

          OUT:                                     OUT:
          ----                                     ----
             STORAGE =           0.0000               STORAGE =           0.0000
       CONSTANT HEAD =           0.0000         CONSTANT HEAD =           0.0000
         SWR LEAKAGE =           0.0000           SWR LEAKAGE =           0.0000
            SWR GWET =           0.0000              SWR GWET =           0.0000

           TOTAL OUT =           0.0000             TOTAL OUT =           0.0000

            IN - OUT =           0.0000              IN - OUT =           0.0000

 PERCENT DISCREPANCY =           0.00     PERCENT DISCREPANCY =           0.00






         TIME SUMMARY AT END OF TIME STEP 4320 IN STRESS PERIOD   25
                    SECONDS     MINUTES      HOURS       DAYS        YEARS
                    -----------------------------------------------------------
   TIME STEP LENGTH  120.00      2.0000     3.33333E-02 1.38889E-03 3.80257E-06
 STRESS PERIOD TIME 5.18400E+05  8640.0      144.00      6.0000     1.64271E-02
         TOTAL TIME 6.04800E+05  10080.      168.00      7.0000     1.91650E-02
1

 Run end date and time (yyyy/mm/dd hh:mm:ss): 2013/01/23 15:55:35
 Elapsed run time: 22.902 Seconds



 SUMMARY OF SWR1 PROCESS EXECUTION TIME
 TOTAL SWR1 EXECUTION TIME:     18.53292     SECONDS
